232

 C        -4.3153685654        4.0318918888      -23.4425150531
 C        -5.0762813461        2.8639795842      -22.9994040441
 O        -5.2404417822        2.6011302156      -21.8024364187
 C        -5.4782041796        1.7359909496      -24.1229964391
 C        -7.0644249578        1.5351011051      -23.8522615806
 O        -7.3355306998        0.8036160060      -22.9159970254
 C        -8.2246866651        2.3421940953      -24.5005372783
 C        -9.6014319080        1.9861912683      -23.9295060085
 C        -9.9589087894        2.8073593400      -22.6260235519
 O        -9.4501040346        3.8179189208      -22.2406360339
 C       -11.2515659297        2.0828998107      -21.7936462248
 C       -10.7940508896        0.8398086714      -20.9495706253
 O       -10.4686202253       -0.2309474946      -21.4332065499
 C       -10.6758247739        0.9179620932      -19.3502451865
 C       -10.0340479635       -0.4456420721      -18.9084606682
 C        -8.6210587960       -0.5286776253      -19.4880998850
 O        -8.0443737192        0.5330512122      -19.8120976517
 C        -7.9502180553       -1.8925167381      -19.7011260458
 C        -6.3737309883       -1.6357707508      -19.4008755423
 O        -5.5233639449       -1.4024013191      -20.2556324912
 C        -5.9855634178       -1.5144918319      -17.9553751298
 C        -4.6614136593       -0.7046450286      -17.7819476909
 C        -5.0344211018        0.7509500819      -17.5612326168
 O        -5.5328260290        1.3412252334      -18.4909151757
 C        -4.6075107306        1.5671478035      -16.2239568184
 C        -5.4401465962        0.9075401801      -15.0354898603
 O        -5.2879419059       -0.2987226503      -14.7646474597
 C        -6.4296082164        1.6835259683      -14.1023134330
 C        -6.2776780457        1.2271074545      -12.6207786602
 C        -4.8194289529        1.2677922985      -11.9204445834
 O        -3.8391635711        1.7636545193      -12.4545003205
 C        -4.7592510768        0.7642082298      -10.4356085939
 C        -3.2949510794        0.1489477279      -10.1748683518
 O        -2.8581464745        0.0999566377       -9.0379663395
 C        -2.6472563915       -0.5885771988      -11.3432971695
 C        -1.6363741384       -1.6593088789      -11.0946084284
 C        -2.2634667063       -2.9797477436      -10.6043082867
 O        -3.4284074134       -3.0979599944      -10.5231870912
 C        -1.1828767396       -4.0819535834      -10.1758029569
 C        -0.2073294381       -3.7204900783       -9.0059016044
 O        -0.0299604798       -2.5482316882       -8.6882393646
 C         0.6140828944       -4.8165846447       -8.3802076319
 C         1.8720957992       -4.3439843142       -7.6825511159
 C         2.0750054254       -4.9478729574       -6.2555353438
 O         1.2971743279       -5.7251496365       -5.7182900742
 C         3.3923411169       -4.5959251700       -5.4758380272
 C         3.4501498170       -2.9898863840       -5.4592748650
 O         4.0649080032       -2.4291642257       -6.3600000532
 C         2.6525649601       -2.3210545096       -4.2721250911
 C         2.5842040634       -0.7239175136       -4.5289690918
 C         1.7377003210       -0.5200757956       -5.8212827361
 O         0.7482515049       -1.1997811391       -6.1524711091
 C         2.0671328728        0.8030656107       -6.6740370100
 C         0.8316923751        1.7642390505       -6.5881494749
 O        -0.2475501340        1.4775657605       -7.0026874939
 C         1.1297005171        3.0833930716       -5.8264015038
 C        -0.0673676789        3.5934046390       -5.0218509797
 C        -0.3276509167        2.5772974741       -3.9302290140
 O         0.3514754044        1.5588635525       -3.8545334785
 C        -1.5433387419        2.6673864315       -2.9330315575
 C        -2.7691401376        1.7534963285       -3.4860425700
 O        -3.8439162737        2.2143369961       -3.8006180773
 C        -2.4990973480        0.2421683083       -3.7273018720
 C        -3.4727214817       -0.4717237418       -4.7258834324
 C        -3.0606890441       -1.7854416721       -5.3396317183
 O        -2.3832520512       -1.8563484799       -6.3698363515
 C        -3.6319785012       -3.0855425936       -4.6929925433
 C        -3.3001485887       -3.1572435162       -3.0986959224
 O        -4.0681618403       -2.5345268215       -2.3601882754
 C        -2.3519584445       -4.2627258704       -2.6127558786
 C        -1.6417800739       -4.0241110509       -1.2431912447
 C        -0.3011768249       -4.7693603498       -1.1992253217
 O         0.7585992721       -4.1849394522       -0.8944636673
 C        -0.2010801976       -6.3571765653       -0.9641833443
 C        -0.8281732149       -6.6742249258        0.4751949459
 O        -1.2976039804       -5.7879351218        1.1369862704
 C        -0.7354849175       -8.0063883078        1.1732404106
 C        -2.1298059468       -8.5165049642        1.6391895778
 C        -2.2974538411       -9.4041968093        2.8172890770
 O        -1.4831767461       -9.4304320337        3.7056624050
 C        -3.5418482423      -10.3050129792        2.9415798814
 C        -4.7563274357       -9.3105578568        2.8642752817
 O        -5.2448274529       -8.9916862019        1.8136003982
 C        -5.0814073819       -8.3713612496        4.0252843741
 C        -3.3207711960      -11.3340466340        1.7926045109
 C        -3.4249865372      -11.0864317239        4.2446486179
 C        -0.8377935750       -7.1807328039       -2.0769566291
 C         1.2330742464       -6.7943148567       -0.9268815534
 C        -5.2046160628       -3.0670394463       -4.7957147166
 C        -3.1218728133       -4.3115209578       -5.3993158608
 C        -1.0465198156        2.1113826629       -1.5925736119
 C        -2.1889223996        4.0815811490       -2.8796650432
 C         3.3746140926        1.4836304946       -6.1557846671
 C         2.3016776739        0.5059417540       -8.1457591029
 C         3.0928001384       -5.2362663454       -4.0176732788
 C         4.5123524716       -5.3159827833       -6.1545885296
 C        -1.8601106436       -5.4553740930       -9.9325546407
 C        -0.2560978978       -4.3321729383      -11.4561541800
 C        -5.1301324343        1.9876799425       -9.5361760089
 C        -5.7798118149       -0.4238866031      -10.2446639648
 C        -3.0396999172        1.4207720127      -16.1271701492
 C        -5.0634880276        3.0087549074      -16.4447443431
 C        -8.5876113265       -3.0181730971      -18.8654602966
 C        -8.0464850724       -2.1814299856      -21.2116707640
 C       -11.7671146754        3.1438208136      -20.7777145326
 C       -12.3403790494        1.5804574312      -22.7569683054
 C        -5.1806079275        2.1244640983      -25.6096402125
 C        -4.7694069503        0.3496995750      -23.7839221997
 H        -4.5853809199        4.4601106333      -24.3964655380
 H        -3.1995627147        3.8500281752      -23.4254693189
 H        -4.4986083500        4.8742583690      -22.7837634387
 H        -8.2445981585        2.0124191955      -25.5344593708
 H        -8.1094562081        3.4105566210      -24.4532520586
 H        -9.6576504732        0.9398004238      -23.7473038094
 H       -10.2823238136        2.1823738144      -24.7862083449
 H       -11.6992139150        1.1464860683      -18.9933984234
 H       -10.0091687207        1.7085434600      -18.9934704707
 H       -10.6074110180       -1.2793610934      -19.3002401299
 H        -9.8435472478       -0.5188909329      -17.8128977284
 H        -5.8306591093       -2.5737726851      -17.6513627682
 H        -6.7901679168       -0.9922021587      -17.4496887246
 H        -3.9630876779       -0.8655203273      -18.6108891194
 H        -4.1748298292       -1.0532985932      -16.8917983917
 H        -7.4264703206        1.5093472044      -14.5253432032
 H        -6.3693471391        2.8111482602      -14.0549894922
 H        -6.6792468891        0.2144377234      -12.5486764229
 H        -6.8168680653        1.9270036645      -11.9210549562
 H        -2.3545752762        0.1377017852      -12.0711919023
 H        -3.5178808745       -1.0210428060      -11.8092743379
 H        -0.8009492726       -1.3687269448      -10.3782741039
 H        -1.0642965722       -1.7879852242      -12.0673275950
 H         0.9322124886       -5.4786033625       -9.1602176448
 H         0.0186852865       -5.4984040088       -7.6549267959
 H         2.0173142989       -3.2550596888       -7.7020126487
 H         2.7398331696       -4.7268801452       -8.2774018966
 H         3.0206462540       -2.6052333339       -3.2745677479
 H         1.6758525877       -2.7621776496       -4.2325714766
 H         3.6311786338       -0.3473412901       -4.4899814754
 H         1.9457756995       -0.2834383793       -3.7910011788
 H         1.3478740100        3.7847771126       -6.7412468545
 H         2.0194063554        3.0510542079       -5.2303802808
 H        -0.9844808632        3.5518432049       -5.6303893289
 H         0.1445546065        4.6632506409       -4.6176315855
 H        -2.5494149206       -0.2043124815       -2.7797494058
 H        -1.4509396244        0.0232846272       -3.9821560530
 H        -3.6122746507        0.2711014636       -5.4988313616
 H        -4.4499819320       -0.5382089261       -4.2301562578
 H        -1.5906944343       -4.3955431992       -3.3522004308
 H        -3.0454611882       -5.1008847917       -2.6248215883
 H        -2.3697486797       -4.3195495924       -0.4057021262
 H        -1.4704807684       -3.0167836684       -1.0010091664
 H        -0.0699922292       -7.8798027015        2.0728440580
 H        -0.2019354526       -8.7758503492        0.5657927464
 H        -2.6490736964       -9.0091724691        0.8624457467
 H        -2.6280075832       -7.5211253419        1.7087681563
 H        -5.1794762952       -8.8230886929        5.0169341373
 H        -6.0478056557       -7.8635775480        3.8475571216
 H        -4.3457737224       -7.5623671509        4.1522814188
 H        -3.7581292906      -12.2907257104        2.0281606471
 H        -2.3194816994      -11.6764645623        1.5406657825
 H        -3.7512948645      -10.9723734056        0.8238355536
 H        -4.0993578606      -11.9354867772        4.2692947099
 H        -3.7033850687      -10.6019187165        5.1477661390
 H        -2.4162190763      -11.5178027267        4.3665754329
 H        -0.9574099294       -8.2355489674       -1.7001952116
 H        -0.3614709318       -7.2132548844       -3.0808938385
 H        -1.8776672793       -7.0344643803       -2.2347051683
 H         1.7887309931       -6.6896993425       -1.8490952618
 H         1.2186507222       -7.7891355620       -0.6130901717
 H         1.7106905279       -6.2391495387       -0.1719939170
 H        -5.8032899605       -2.7771032059       -3.9083644670
 H        -5.6056249547       -4.0837943924       -5.0894946975
 H        -5.4681068619       -2.4317489599       -5.5948914962
 H        -3.4833769159       -5.3127257098       -5.0509696942
 H        -2.0487052443       -4.3937380634       -5.1983819123
 H        -3.1814914321       -4.1711179871       -6.4940825825
 H        -1.9581198517        1.9679953238       -1.0224679255
 H        -0.2973024401        2.7861966354       -1.1690280557
 H        -0.5901593080        1.1778150923       -1.8880445080
 H        -2.3744514755        4.3044787764       -3.9570740326
 H        -1.4075244134        4.8497631714       -2.5521010066
 H        -3.0027365472        4.1386931499       -2.2007225293
 H         3.8741419707        2.3541390777       -6.6366803479
 H         4.1782227511        0.8270696590       -6.2607984022
 H         3.4060024990        1.7476312309       -5.0991492394
 H         1.4203138570        0.6904295183       -8.7228873663
 H         2.6163448089       -0.4947496373       -8.3365174833
 H         3.1127896408        0.9910945741       -8.6256532074
 H         2.9942064108       -6.3546083572       -4.1502942044
 H         2.1512164944       -4.9961868691       -3.6313386947
 H         3.8734193048       -5.1241904791       -3.2429218380
 H         4.5575500257       -5.0398888828       -7.2388188680
 H         4.2979815376       -6.3391612216       -6.1498291356
 H         5.4852141520       -5.0373533571       -5.7039968690
 H        -1.1558504301       -6.2565443154       -9.9955285276
 H        -2.6130947903       -5.5805559349      -10.7390321029
 H        -2.3484275240       -5.5189344813       -9.0372140740
 H         0.0745152787       -5.4193849513      -11.5323196238
 H         0.7263026405       -3.6745924954      -11.5386375856
 H        -0.7818215497       -4.0458873775      -12.3136719704
 H        -5.0560310318        2.9620831575      -10.1326472933
 H        -4.5729458056        1.9281269893       -8.6447515045
 H        -6.1757581573        1.8505676213       -9.3556567223
 H        -5.4872467954       -0.9393667152       -9.3720233470
 H        -5.5778679408       -1.1332978189      -11.0258623323
 H        -6.6890953017        0.0893483812      -10.1465655521
 H        -2.6674139803        2.0788636159      -15.3641726598
 H        -2.5223648658        1.6832818432      -16.9952631821
 H        -2.6290438187        0.4288073683      -15.7866075428
 H        -4.6582748960        3.8189152593      -15.8172612518
 H        -6.1373064311        2.9649067206      -16.2972309894
 H        -4.8432678077        3.3882900593      -17.4305961475
 H        -7.9488500342       -3.9590883303      -18.8930584393
 H        -9.5794475810       -3.2212576819      -19.1248860068
 H        -8.5745376973       -2.8036639478      -17.7691649201
 H        -7.4219158792       -2.9982427561      -21.5120534238
 H        -7.5236027843       -1.3412604268      -21.6498582484
 H        -8.9854959126       -2.2049900422      -21.5810478873
 H       -11.1486026201        3.3057856387      -19.8905836736
 H       -12.7672894568        2.7472794266      -20.5107923930
 H       -11.7912207244        4.1822935712      -21.1738804603
 H       -12.8382436248        2.3176425973      -23.3226950165
 H       -13.0997617090        0.9911434797      -22.2515137892
 H       -11.9725831421        0.8542997690      -23.5410671188
 H        -5.2587785785        1.2766928665      -26.2893959319
 H        -4.1255500496        2.3411852647      -25.6241535320
 H        -5.8200473118        2.9968321828      -26.0384882378
 H        -4.8053584916        0.1883646533      -22.7044125817
 H        -3.7075838633        0.5165352742      -24.1281050842
 H        -5.1459127243       -0.4595685129      -24.3424204715
 Na       -6.1349301145        0.8491366019      -20.8528476497
 Na       -1.0623591220       -0.4611825672       -7.6294209041
