232

 C        -4.2655055641        4.0510131628      -23.5446299260
 C        -5.0527224663        2.8270884622      -23.0747837162
 O        -5.2110775466        2.6841243646      -21.8476923585
 C        -5.5667588248        1.7697790848      -24.0539069577
 C        -7.1649239804        1.5470891056      -23.8857816710
 O        -7.5101046132        0.8711764951      -22.9552819665
 C        -8.1984478008        2.3865287605      -24.6470223631
 C        -9.6129927995        2.0382858042      -23.9650009669
 C       -10.0618475469        2.6779912117      -22.5999146069
 O        -9.5605527907        3.7197637991      -22.2696448147
 C       -11.2315062270        2.0400495068      -21.7585401990
 C       -10.7420802268        0.8073308547      -20.8788374099
 O       -10.6237732086       -0.2605467359      -21.4621979386
 C       -10.7711975583        0.8355626592      -19.3528915988
 C        -9.9909324576       -0.4534441286      -18.8886523924
 C        -8.5678466031       -0.4797012079      -19.4836510032
 O        -8.0752470653        0.5409304725      -19.8762709130
 C        -7.9087395953       -1.8825677772      -19.6727908381
 C        -6.4173755765       -1.6855987713      -19.2867167955
 O        -5.5865017977       -1.5007918776      -20.1388903668
 C        -5.9388232598       -1.6264310368      -17.7277497524
 C        -4.5773292266       -0.8219133300      -17.6752006094
 C        -4.9090229414        0.6645660235      -17.5466888752
 O        -5.4423510984        1.3176635504      -18.3866987346
 C        -4.6059374925        1.5133227243      -16.2454049486
 C        -5.2599309525        0.8692511726      -14.9334702382
 O        -5.2291325438       -0.3414659888      -14.7442821755
 C        -6.1698300849        1.7148110647      -14.0844660391
 C        -6.1822821087        1.1604864949      -12.6451570192
 C        -4.8710272188        1.2503867176      -11.8858933324
 O        -3.8508574901        1.6456986707      -12.3908201600
 C        -4.8290022270        0.7852986269      -10.3326366433
 C        -3.3458751063        0.0891974522      -10.0269659058
 O        -2.8962624808       -0.0084619704       -8.9029809326
 C        -2.5599504498       -0.4534788209      -11.2958065899
 C        -1.6490691268       -1.5476697111      -10.8813083776
 C        -2.2583593043       -2.9186222030      -10.5052525124
 O        -3.4802602011       -3.1146814966      -10.5873916272
 C        -1.2463522281       -4.0775020390      -10.2119817735
 C        -0.2241021013       -3.7117618629       -9.0570432225
 O         0.0221232949       -2.5723277292       -8.7578969958
 C         0.5396693105       -4.8021497574       -8.2453724820
 C         1.8893329063       -4.4094608485       -7.6339266219
 C         1.9669516555       -4.9258166211       -6.2773035650
 O         1.1023164886       -5.6253198615       -5.8502862059
 C         3.2602126443       -4.6370774880       -5.4658849453
 C         3.3838039753       -3.0526440138       -5.4045552530
 O         4.0092338292       -2.4230824552       -6.2673128408
 C         2.6227452936       -2.2871260183       -4.3705813761
 C         2.6326428252       -0.7654294473       -4.7096172219
 C         1.7104124996       -0.4155558161       -5.8263286179
 O         0.8410552697       -1.2424534765       -6.0680236865
 C         2.0644837372        0.8390390456       -6.6454308145
 C         0.8153809669        1.8221876876       -6.5522111561
 O        -0.3177645403        1.5595359047       -6.8957493826
 C         0.9711738422        3.2514746221       -5.9588613347
 C        -0.1591345080        3.6716527572       -5.0150220224
 C        -0.3394628027        2.5690999658       -3.9550270958
 O         0.3522506762        1.5693702700       -3.8990948665
 C        -1.5117396377        2.7281312397       -2.9890725078
 C        -2.7301089951        1.6631526715       -3.5931752650
 O        -3.8083192633        2.1255976275       -3.7839571910
 C        -2.4210556777        0.1733153318       -3.7279012310
 C        -3.3955314150       -0.3992683822       -4.7553848110
 C        -2.9965603166       -1.7382068654       -5.2837088217
 O        -2.4000891956       -1.8120141506       -6.3413178024
 C        -3.6036940736       -3.1507461972       -4.6597694196
 C        -3.4126596717       -3.1538162837       -3.0947829596
 O        -3.9562562091       -2.3940217991       -2.3516679199
 C        -2.2980634088       -4.2124955501       -2.7040610661
 C        -1.5423516204       -4.1019400464       -1.3169772389
 C        -0.2430284089       -4.8930313463       -1.1657978283
 O         0.7511250524       -4.1789600344       -1.0350913163
 C        -0.1440200142       -6.4890037096       -0.9845204664
 C        -0.8027036787       -6.6778811192        0.5062754269
 O        -1.3894091143       -5.7722425454        1.0357196423
 C        -0.6432059105       -8.0348952703        1.2013299254
 C        -2.0961103076       -8.4726324001        1.5028167289
 C        -2.1255508460       -9.4329953067        2.8257750109
 O        -1.2545832333       -9.4455801955        3.6855968539
 C        -3.5017550083      -10.3333126994        2.9591577684
 C        -4.7052285260       -9.3081343885        2.7685845748
 O        -5.1229940331       -9.1609208359        1.5862904286
 C        -5.1738361023       -8.5016217754        3.9296788409
 C        -3.4099799433      -11.2785694478        1.7534910793
 C        -3.4769218473      -11.0376217038        4.3521699519
 C        -0.9263002495       -7.2585476655       -2.1962863346
 C         1.4075385133       -6.8541713721       -0.9598393822
 C        -5.1191302961       -2.9579579478       -4.8691892677
 C        -3.0673464213       -4.3484782972       -5.4445505590
 C        -1.1387244447        2.2559609910       -1.4713995619
 C        -2.1089398851        4.2649395246       -2.8795529160
 C         3.2655204058        1.5933792306       -6.1458210718
 C         2.4593648764        0.5011075687       -8.1931819504
 C         3.0445847435       -5.1955186107       -4.0365936977
 C         4.4922777299       -5.3329724055       -6.0701731380
 C        -1.9568267871       -5.5162080423       -9.9380921783
 C        -0.3290610252       -4.2298680895      -11.4916771945
 C        -5.1895462403        2.0273804779       -9.5532810148
 C        -5.8214445231       -0.3745119172      -10.1101555020
 C        -3.0886041688        1.5312465364      -16.1938596469
 C        -5.0031284427        2.9224242195      -16.5045331054
 C        -8.7535511102       -2.8266146094      -18.8868981190
 C        -8.0246399890       -2.1742025064      -21.2836993934
 C       -11.9201913311        3.1328939486      -20.9068508272
 C       -12.4243996788        1.6775391062      -22.7331356023
 C        -5.3028888664        2.2140062345      -25.5443810985
 C        -4.7856974115        0.4873106797      -23.7272796482
 H        -4.4867253538        4.5001846756      -24.4517819546
 H        -3.2174158972        3.7532382741      -23.5369334447
 H        -4.3044958627        4.8878775725      -22.8775300470
 H        -8.1827081295        2.1107046957      -25.7342717186
 H        -7.9987462040        3.3788209858      -24.4928033181
 H        -9.7313589232        0.9578222911      -23.9417144775
 H       -10.2981615981        2.3435748922      -24.7234029997
 H       -11.8905583607        0.8523465289      -19.0525169608
 H       -10.3786013922        1.7707909088      -18.9592758805
 H       -10.5838984158       -1.2636095753      -19.2752330506
 H        -9.8292687771       -0.5395895186      -17.8075996619
 H        -5.7176983927       -2.7620237096      -17.5474484851
 H        -6.7241976212       -1.1407617479      -17.0844714095
 H        -4.1704226313       -0.9742357946      -18.6414839618
 H        -3.7638680190       -1.1581219456      -16.9436544816
 H        -7.1793499803        1.6344586934      -14.5808522888
 H        -5.9791926547        2.7599007339      -14.0838483674
 H        -6.3742182961        0.0848500088      -12.7871782894
 H        -6.9564380396        1.6068097533      -11.9898194112
 H        -1.9830127769        0.3974125603      -11.7185051193
 H        -3.2877817145       -0.6550245833      -12.1072000533
 H        -0.8729589844       -1.1473178027      -10.1737217661
 H        -1.0637521599       -1.7528200403      -11.7310764734
 H         0.6492632763       -5.7646720489       -8.7528910320
 H        -0.2500699237       -5.0681409815       -7.3139706563
 H         1.7167611048       -3.2969244431       -7.5418189320
 H         2.7741848577       -4.4711596160       -8.2533953744
 H         2.9717516883       -2.3656440104       -3.3226797312
 H         1.6437455683       -2.7637057180       -4.2426132991
 H         3.6617563357       -0.5046266160       -4.7890929277
 H         2.1646282956       -0.3570694083       -3.7950679982
 H         1.0796154222        3.9630503100       -6.7850584112
 H         1.9558952566        3.2858665486       -5.3508661422
 H        -1.0991799001        3.7115513567       -5.5211321786
 H         0.1160805438        4.6405917188       -4.5551953653
 H        -2.4010190398       -0.3179663575       -2.7806449452
 H        -1.3562491017       -0.0111769397       -4.0996260813
 H        -3.4264031984        0.3453124052       -5.4906710848
 H        -4.4129836195       -0.4271953937       -4.3352213611
 H        -1.5405959196       -4.0169032108       -3.4412862897
 H        -2.7757933234       -5.2076767188       -2.9184556737
 H        -2.2783446637       -4.3137371835       -0.5245297981
 H        -1.2708489460       -3.0863878161       -1.0178763120
 H        -0.1019561595       -7.9757074537        2.2073272358
 H        -0.0847663066       -8.8502307401        0.6222493556
 H        -2.5516567588       -9.0677028954        0.7118291737
 H        -2.6372013543       -7.5414267427        1.4805237888
 H        -5.5930549066       -9.0616948345        4.8095506740
 H        -5.9235511601       -7.7871240953        3.6725841809
 H        -4.3432136438       -7.9052307093        4.3252340031
 H        -3.7791886341      -12.3172916250        1.9465650987
 H        -2.4070683221      -11.5593248453        1.5061518389
 H        -3.8461590148      -10.9291531691        0.8061734183
 H        -4.1934815795      -11.8422130478        4.4884732971
 H        -3.7863432629      -10.3921879462        5.1766296780
 H        -2.4910176398      -11.5134420529        4.6189898045
 H        -0.8556862025       -8.3555348845       -1.9326701456
 H        -0.6495513954       -7.0693769342       -3.1612816740
 H        -2.0396508170       -7.2880635632       -2.1730534142
 H         1.8044414658       -7.0588299330       -1.9541125536
 H         1.5275228110       -7.7169919551       -0.3620435801
 H         1.9814895658       -6.0301598727       -0.4890551341
 H        -5.5070325928       -2.3483876818       -4.0393190315
 H        -5.7022015616       -3.8411116034       -4.8069669504
 H        -5.3517849898       -2.4062268914       -5.7910410811
 H        -3.3285046865       -5.2889221183       -4.9240090338
 H        -1.9102225549       -4.4156663477       -5.3409876490
 H        -3.3283361199       -4.3619111065       -6.4850769680
 H        -2.0761159806        1.8843679702       -1.0365804261
 H        -0.8523375537        3.1909923076       -1.0560018175
 H        -0.3553620368        1.5193853316       -1.4908755689
 H        -2.5608733308        4.4513648199       -3.8219507466
 H        -1.3770507801        5.1058828395       -2.7940174299
 H        -2.7409539988        4.3042055139       -1.9563918972
 H         3.5091621312        2.5146847463       -6.5846490840
 H         4.1918872680        1.1016474080       -6.3341347040
 H         3.2319513326        1.7970836284       -5.1023263084
 H         1.6694035555        0.1760259706       -8.7906888175
 H         3.2171423725       -0.3078808491       -8.1851829003
 H         3.0527363862        1.2128408967       -8.7127704972
 H         2.7151576433       -6.2362998301       -4.1713600165
 H         2.3091404177       -4.7340278285       -3.3772758005
 H         4.0066438228       -5.3304235444       -3.5427783646
 H         4.4863289123       -4.9341356358       -7.0361749496
 H         4.3942112706       -6.4733161701       -6.2517433686
 H         5.3475844435       -5.0221919415       -5.5980093761
 H        -1.2338037671       -6.2404871975       -9.7467142078
 H        -2.5170994862       -5.8820560676      -10.7965649629
 H        -2.6615942511       -5.4888721748       -9.0943644961
 H         0.1717737582       -5.2011445704      -11.4869176157
 H         0.4420838787       -3.5288803637      -11.6604892779
 H        -1.0680248184       -4.1716281786      -12.3498310976
 H        -4.9519979066        2.8811276644      -10.1601727972
 H        -4.6668603490        1.9910558387       -8.6137899220
 H        -6.2714804585        2.0489055574       -9.4409204389
 H        -5.5437707383       -0.8063551826       -9.1638837811
 H        -5.7053151279       -1.1747175608      -10.8269256202
 H        -6.7142770343        0.1617240902      -10.0184554141
 H        -2.6681001702        1.8528040437      -15.2082886357
 H        -2.5336419360        2.1381990177      -16.9052260151
 H        -2.7100834438        0.5599949434      -16.2382690366
 H        -4.4335760025        3.6140665853      -15.9454847419
 H        -6.1033736275        3.1210489130      -16.3142341835
 H        -4.7126453074        3.3155998871      -17.5544797536
 H        -8.5084327821       -3.9057140232      -19.0619925320
 H        -9.7866680339       -2.6986973190      -19.3318192356
 H        -8.7246775168       -2.7802758930      -17.8809112431
 H        -7.5389958793       -3.1325666109      -21.5174736869
 H        -7.4649982835       -1.4960370904      -21.8114749135
 H        -9.1147834952       -2.0856234269      -21.6135179933
 H       -11.3307131646        3.7464432260      -20.1061580227
 H       -12.8114173194        2.6224095916      -20.4833591542
 H       -12.2138428213        3.9235833489      -21.5941360852
 H       -12.8086058141        2.5880318239      -23.2066824233
 H       -13.2762372971        1.1478517136      -22.2525722393
 H       -12.2262674299        0.9745321238      -23.5257366888
 H        -5.5223370611        1.5425587066      -26.3651399246
 H        -4.1871330638        2.2639749610      -25.5233390189
 H        -5.7431295539        3.1823450792      -25.7727614638
 H        -4.5084641493        0.4214668918      -22.6936456598
 H        -3.8674629369        0.5354798372      -24.3341781441
 H        -5.3745031939       -0.3543596750      -24.1114672209
 Na       -5.9153546337        0.6571575713      -20.6817312072
 Na       -0.9791510377       -0.5987001642       -7.6770025444
