232

 C        -4.2746096966        4.1001351391      -23.5522526495
 C        -5.0902428511        2.9298615783      -23.0176502742
 O        -5.0845641142        2.7209504387      -21.8305322587
 C        -5.8027153497        1.9270599303      -24.0362329747
 C        -7.1942859422        1.6047533486      -23.6119660163
 O        -7.3864519133        0.8746769423      -22.6334852668
 C        -8.3931735630        2.3471179823      -24.2758505160
 C        -9.8358710703        2.0120673854      -23.9542661835
 C       -10.2241683307        2.6547074825      -22.6884744894
 O        -9.5068520304        3.5327779021      -22.2611772308
 C       -11.4809656898        2.0784696642      -21.9479503288
 C       -10.9750491464        0.8405234912      -21.1266060583
 O       -10.7939377648       -0.2399393175      -21.6513907423
 C       -10.8573158590        1.0121764256      -19.5823262037
 C       -10.0850228638       -0.1260836245      -18.8682558508
 C        -8.6396061618       -0.3874656112      -19.4352277369
 O        -8.0301005130        0.5665490776      -19.9363019135
 C        -7.9882911494       -1.8542155851      -19.5876289369
 C        -6.4401826146       -1.6933957517      -19.1368250518
 O        -5.5588408354       -1.7680868702      -20.0028031791
 C        -6.0484504301       -1.8695242061      -17.6778203672
 C        -4.7883593639       -1.0382255560      -17.4124254837
 C        -4.8515978130        0.5659441442      -17.4957420726
 O        -5.3157558853        1.0880779098      -18.5219093371
 C        -4.4402435116        1.4391708274      -16.2981391715
 C        -5.0129064428        0.8435417970      -15.0401061333
 O        -4.9006594290       -0.3436484404      -14.7534208302
 C        -5.7406300938        1.7435653279      -14.0448406700
 C        -6.1125636161        1.0087367742      -12.7166078540
 C        -4.8989901713        1.0713770352      -11.7570701063
 O        -3.8554329233        1.6094969938      -12.1343596306
 C        -4.8417499351        0.6794836450      -10.2716474237
 C        -3.4627274859        0.0985990422       -9.8817708815
 O        -3.2031297995        0.0442599854       -8.6805734412
 C        -2.5632096345       -0.3258730741      -11.0410650846
 C        -1.5976755201       -1.4265099743      -10.6559463403
 C        -2.2672686693       -2.7670012446      -10.5372122895
 O        -3.4185144060       -2.9914263974      -10.5614003141
 C        -1.2771655961       -3.9903117796      -10.3078528958
 C        -0.2628375751       -3.6872850621       -9.1282847934
 O         0.1237843210       -2.5177407222       -8.9280130855
 C         0.3276817804       -4.8753054337       -8.3510590640
 C         1.6665186394       -4.4503854370       -7.5669935342
 C         1.7954762281       -4.9592185562       -6.1559017862
 O         0.8138660464       -5.5266103403       -5.6426264575
 C         3.0772893703       -4.6819317388       -5.3581609324
 C         3.2695795950       -3.1745982689       -5.3578176863
 O         3.9471273511       -2.6558262848       -6.2092181598
 C         2.5823544821       -2.2440490901       -4.3639436343
 C         2.7071564485       -0.7090532785       -4.6783626181
 C         1.8035186409       -0.2143140186       -5.8074155649
 O         0.9246433516       -0.9774997085       -6.1849851997
 C         2.0902058069        1.1341359234       -6.5592495148
 C         0.7599959103        1.8893563127       -6.5401846422
 O        -0.2986003056        1.3835444251       -6.9380672292
 C         0.7041252854        3.3815882023       -6.1521956243
 C        -0.3492966444        3.7727667295       -5.1267615485
 C        -0.3194208212        2.6844448090       -3.9307667707
 O         0.3925685252        1.6679967057       -3.9991159638
 C        -1.5375775367        2.8217052518       -2.9445891293
 C        -2.6402137365        1.7548425029       -3.5293226231
 O        -3.7532407710        2.1686524909       -3.7979078057
 C        -2.2027866086        0.2829709920       -3.7439781127
 C        -3.2098090459       -0.4289574854       -4.6917907836
 C        -2.8985238081       -1.8140631819       -5.3202742072
 O        -2.1081926984       -1.8832295654       -6.2709262172
 C        -3.6854730637       -3.0157980863       -4.7105401208
 C        -3.0836602717       -3.1309853770       -3.2432345984
 O        -3.4360427100       -2.3846085265       -2.3264280209
 C        -1.9679556333       -4.1563309641       -2.9014080529
 C        -1.5253555713       -4.2447836139       -1.4396358474
 C        -0.1270627046       -4.8634223178       -1.2632992743
 O         0.8533327611       -4.1757491671       -1.5568336151
 C        -0.0583960708       -6.4643561137       -0.9852991553
 C        -0.7374458657       -6.6533198645        0.4439715136
 O        -1.5673855864       -5.9083300891        0.9418515228
 C        -0.5694839060       -7.9922055091        1.1071507410
 C        -1.9435286674       -8.5761997294        1.4265350899
 C        -1.9319044911       -9.4280444660        2.6672391931
 O        -1.0708263865       -9.5409062247        3.5124955833
 C        -3.3118859578      -10.3450584354        2.8915197079
 C        -4.6081661192       -9.3982220313        2.5326432653
 O        -4.9633872488       -9.2597561310        1.4126806416
 C        -5.3977910877       -8.7238592459        3.6723306326
 C        -3.3221087712      -11.5834674553        1.9158711651
 C        -3.4497904997      -10.8250248805        4.3396865776
 C        -1.0102096520       -7.2649715112       -1.8968119649
 C         1.4381490631       -6.9104561812       -1.0425663660
 C        -5.2194952494       -2.8850549198       -4.9136634168
 C        -3.2187434793       -4.2214347124       -5.5608101917
 C        -1.1587581961        2.3192575087       -1.4003777718
 C        -2.2534088302        4.1900633925       -3.0272362365
 C         3.3497371644        1.7919047962       -6.0621475890
 C         2.2061140219        0.5887076605       -8.0097844656
 C         2.9691865477       -5.2868708409       -3.9267970115
 C         4.3457066351       -5.2098367399       -6.0631690903
 C        -2.1915578985       -5.2032367199       -9.9313575886
 C        -0.4092153521       -4.3381941128      -11.6043994053
 C        -4.9632243871        1.9406261585       -9.4238917902
 C        -5.9418041808       -0.3256904942       -9.8815453647
 C        -3.0008804201        1.4282014473      -15.9856910284
 C        -5.0157334166        2.9054951103      -16.4637433989
 C        -8.5911991733       -3.0305659945      -18.8136171016
 C        -7.9712568654       -2.1581356976      -21.0529267337
 C       -11.8646947750        3.2119216505      -20.9652680575
 C       -12.5608453808        1.4802951386      -22.9903972526
 C        -5.6643639208        2.3324287407      -25.5152073270
 C        -5.0269615725        0.5068457373      -23.9095760323
 H        -4.9690813862        4.7356876669      -24.1453543614
 H        -3.4335978495        3.7980691464      -24.1978202955
 H        -3.8488512813        4.8098308243      -22.8344657695
 H        -8.2309490711        2.1390705366      -25.3373281140
 H        -8.2221265843        3.4808541693      -23.9874313144
 H        -9.9669645599        0.9217798757      -23.9926907137
 H       -10.4611056330        2.3483453204      -24.8276928846
 H       -11.7930075652        0.9603327498      -19.0621978096
 H       -10.5342335156        2.0231147320      -19.2586567748
 H       -10.6805479492       -1.0751707793      -18.9329229606
 H       -10.1430051199        0.2013281167      -17.8103975244
 H        -5.7104329194       -2.8710153747      -17.5699742080
 H        -6.8130551424       -1.6209693219      -16.9643029618
 H        -4.0115262334       -1.3844328599      -18.1851655183
 H        -4.3662043401       -1.3278630471      -16.4954547026
 H        -6.6601369965        2.1522307246      -14.3710676598
 H        -5.1306737367        2.6432923116      -13.7877179202
 H        -6.4299910231        0.0036768152      -12.9497447220
 H        -6.9781862913        1.5469214085      -12.3443700582
 H        -2.0781621876        0.5311693548      -11.5260846727
 H        -3.3119091832       -0.5941497964      -11.7775748351
 H        -1.2546053059       -1.2136760662       -9.6433601138
 H        -0.6885043789       -1.3863273687      -11.2951817272
 H         0.6316596841       -5.6778346353       -9.0620957533
 H        -0.4559672992       -5.2132467715       -7.8272060183
 H         1.7013554443       -3.3984344834       -7.7932228564
 H         2.5112963490       -4.9103539155       -8.1302117811
 H         2.9658943784       -2.3847528012       -3.3490648997
 H         1.5224007974       -2.4541151375       -4.1033761833
 H         3.7650506593       -0.5927067981       -5.0458458168
 H         2.5171708637       -0.1723911854       -3.7587419859
 H         0.4139852248        3.8555941217       -7.0955100226
 H         1.6314421451        3.6769213338       -5.8882810873
 H        -1.3157267353        3.7412064108       -5.6274195637
 H        -0.0674122324        4.7482767163       -4.7370936721
 H        -2.0795509585       -0.2860433582       -2.7732335257
 H        -1.2363080677        0.1850897997       -4.1881775514
 H        -3.2577648235        0.3403086992       -5.5349696854
 H        -4.2045421658       -0.3643524376       -4.2624304435
 H        -1.0325234804       -3.8890807926       -3.4652442848
 H        -2.3825480782       -5.0865747662       -3.2701159703
 H        -2.2889656107       -4.7516877334       -0.8267169204
 H        -1.4893960965       -3.3047155445       -0.9092071892
 H         0.0030151710       -7.9003755836        1.9950806307
 H        -0.1749293109       -8.7610168937        0.4954382243
 H        -2.4513503511       -9.0036949935        0.5552860010
 H        -2.6767153107       -7.7588302276        1.6997656215
 H        -6.2503984835       -9.3204561259        3.8437323235
 H        -5.8292667558       -7.7608536254        3.3540174837
 H        -4.9786602863       -8.5940425912        4.6497786186
 H        -4.1496174084      -12.2463777543        2.0000687194
 H        -2.4513995757      -12.2456372759        2.0241994494
 H        -3.3546366301      -11.3050516967        0.8675590123
 H        -4.4471677639      -11.1829556134        4.6309772185
 H        -3.2023561393      -10.1289549682        5.1301382570
 H        -2.8700803556      -11.7094511096        4.4898850688
 H        -0.9070289805       -8.3453119269       -1.8395881066
 H        -0.8952395115       -6.8322725630       -2.9495394487
 H        -2.0464693939       -7.1720478080       -1.7571638589
 H         1.5778436864       -7.3105606095       -2.0819676568
 H         1.6390969684       -7.8066160476       -0.3847964440
 H         2.1411946527       -6.0789275166       -0.8877450151
 H        -5.6703103874       -1.9422724849       -4.6518819727
 H        -5.6395959233       -3.5612020450       -4.1326754839
 H        -5.5353758006       -3.0938153670       -5.9070885430
 H        -3.5278161780       -5.1702969648       -5.1370363513
 H        -2.1968212010       -4.2608103729       -5.5793539618
 H        -3.5975508974       -4.1856880214       -6.5912763415
 H        -2.0641404318        1.9567390287       -0.9263338854
 H        -0.8040993536        3.2384323182       -0.9186875798
 H        -0.4683887305        1.4770444385       -1.5208195189
 H        -2.4839678673        4.4890902379       -4.0655767697
 H        -1.5653909460        4.9915864755       -2.7777504535
 H        -2.9929077698        4.1755790632       -2.2882189108
 H         3.6407500065        2.7033355230       -6.6520947114
 H         4.2670665507        1.2212305632       -6.0561745278
 H         3.2357645447        2.2294886376       -5.0659085464
 H         1.6686914080       -0.3912271633       -8.2602221211
 H         3.1955625716        0.5163076626       -8.4292789190
 H         1.8940197607        1.4030012098       -8.7030940554
 H         2.7714155393       -6.3776280836       -3.8712931851
 H         2.2253120673       -4.6878921946       -3.4421967307
 H         3.9181811782       -5.2104351363       -3.3786634052
 H         4.6279620087       -4.7385622700       -7.0609401480
 H         4.1881884498       -6.1996974071       -6.2213541910
 H         5.1374330056       -5.1142428545       -5.2514478730
 H        -1.5400359369       -6.0998358473       -9.6578139372
 H        -2.6998774617       -5.6071447445      -10.8444576649
 H        -2.9488235003       -5.0103032524       -9.1874886549
 H         0.5107448384       -4.8307331494      -11.3006450578
 H         0.1579410513       -3.3851146870      -11.9261162599
 H        -0.9281505792       -4.8345443117      -12.3606639603
 H        -4.0370682518        2.5780885875       -9.5309182006
 H        -5.0421444617        1.5764590931       -8.4155407869
 H        -5.7985739946        2.5194501244       -9.7705146906
 H        -6.0191635243       -0.2406284967       -8.7746594377
 H        -5.5385756990       -1.3552723962      -10.1153139348
 H        -6.8946477514        0.0143547764      -10.3742192759
 H        -2.6966824615        1.7121605635      -14.9952983474
 H        -2.4685169821        2.1703100060      -16.5803673492
 H        -2.4330927266        0.4321220696      -16.1273987153
 H        -4.8864845047        3.5911954685      -15.5762141939
 H        -6.0363341660        2.9184127088      -16.7756312281
 H        -4.4889036209        3.4814853472      -17.1527641823
 H        -7.9068289833       -3.8440996746      -18.5824083930
 H        -9.2998527337       -3.4840120166      -19.3979552500
 H        -8.9676320716       -2.7978957108      -17.7546849418
 H        -7.5230393115       -3.1795890043      -21.2095072908
 H        -7.3620321592       -1.4713581451      -21.7653964983
 H        -8.9943077166       -2.1157400585      -21.3451891447
 H       -10.9235486272        3.6034813109      -20.7491133599
 H       -12.3501416019        2.9480057564      -20.0482590703
 H       -12.3969162222        4.0013652085      -21.5196068686
 H       -12.6444886260        2.1495393057      -23.8460197830
 H       -13.5599575546        1.3315811814      -22.6367091306
 H       -12.3694499693        0.3985890577      -23.2487869102
 H        -6.1948473338        1.5242325276      -26.0191039508
 H        -4.7331023573        2.3472325768      -25.9714432759
 H        -6.2956100683        3.2117465028      -25.7989564817
 H        -4.7162746850        0.4086259948      -22.8369646950
 H        -4.0550663102        0.4825908126      -24.4327534204
 H        -5.7500516373       -0.2056561000      -24.2333101726
 Na       -5.7340014608        0.6150435571      -20.7887953014
 Na       -0.8862658691       -0.8072009739       -7.6361460665
