232

 C        -4.5705624577        4.1463377832      -23.5734545641
 C        -4.9908926962        2.8163456620      -23.0437051629
 O        -4.9461114385        2.4868851136      -21.8681219664
 C        -5.7740732650        1.8699643544      -24.0554001438
 C        -7.2365220412        1.7173357406      -23.4477536672
 O        -7.5853793920        1.1178557023      -22.4625548375
 C        -8.3562351428        2.1868661780      -24.3390197124
 C        -9.7484585106        1.7327717468      -23.7678800019
 C       -10.2624046598        2.4954421801      -22.5744637881
 O        -9.5278530982        3.3892162192      -22.1671945240
 C       -11.7453279701        2.0353723715      -21.8736388317
 C       -11.1596777218        0.7942571112      -21.0976195931
 O       -10.8159474820       -0.1678526207      -21.7584164588
 C       -10.5430590040        1.0344488131      -19.6864138499
 C        -9.9942191952       -0.2926490804      -19.0864431183
 C        -8.5781139864       -0.3748237416      -19.4948995417
 O        -7.8833217042        0.5824300385      -19.7166463117
 C        -7.9529560804       -1.8576201393      -19.5446249508
 C        -6.4362811620       -1.6829459297      -19.1619724515
 O        -5.5702851831       -1.5748631767      -20.0058508640
 C        -6.1375424477       -1.6024476016      -17.7074259942
 C        -4.6312286339       -1.1107374315      -17.4077499141
 C        -4.7143516075        0.3752451329      -17.5240890718
 O        -5.1265348430        0.8731186027      -18.5472994667
 C        -4.4498003449        1.3107357142      -16.3042724426
 C        -5.0465527266        0.7831093285      -14.7810411412
 O        -4.7193367245       -0.3194446842      -14.4762949068
 C        -5.9060510521        1.5901369932      -13.8509045152
 C        -6.0451758415        0.9688125622      -12.4008368731
 C        -4.8236195611        1.2707662214      -11.5626354497
 O        -3.9011807501        1.9553410446      -11.9430385322
 C        -4.8249057616        0.6856586223      -10.1245260476
 C        -3.4491995034        0.0289175256       -9.7669852524
 O        -3.0827650647       -0.1340892040       -8.6134496866
 C        -2.5890327903       -0.3179478008      -11.0175945631
 C        -1.4256672840       -1.3114824716      -10.8251602443
 C        -2.0735679885       -2.7024457380      -10.4881291863
 O        -3.3310795924       -2.8015255566      -10.5503488948
 C        -1.2590746517       -4.0131361306      -10.2216656685
 C        -0.1666487191       -3.7660302842       -9.1161296822
 O         0.3094546172       -2.6812306680       -8.9298601873
 C         0.2781877593       -4.9885802246       -8.2865980347
 C         1.5318203656       -4.6369247607       -7.5013720672
 C         1.5513546318       -4.9274662829       -6.0631196131
 O         0.6254701941       -5.4003907101       -5.4866483228
 C         2.9247805388       -4.6759374444       -5.2499747233
 C         3.2021857655       -3.0911511178       -5.2893593055
 O         3.7984026984       -2.5532127177       -6.2180719021
 C         2.6082612309       -2.2171149392       -4.2469014417
 C         2.7619972727       -0.6882435812       -4.5574684415
 C         1.8981887466       -0.2952441469       -5.7670602240
 O         0.9566692209       -0.9990007730       -6.0097421663
 C         2.0415007880        1.1743192261       -6.6596559706
 C         0.6851045517        1.9333984260       -6.5423500937
 O        -0.3681540148        1.4444047293       -6.9350849425
 C         0.6832186353        3.4227001456       -6.2817126384
 C        -0.4842103618        3.7766037839       -5.3278720409
 C        -0.4178753360        2.8244146769       -4.0762589031
 O         0.5087237764        2.0589134243       -3.9339697664
 C        -1.5777154307        2.7988519509       -2.9873610148
 C        -2.6430798884        1.7182239952       -3.6090335110
 O        -3.7810202679        2.0582414144       -3.8820085180
 C        -2.1948564755        0.2711303162       -3.8848013945
 C        -3.2287004738       -0.4526112714       -4.8790863606
 C        -2.9008760107       -1.8194837147       -5.3100167524
 O        -1.8979430778       -1.9909492448       -5.9916588357
 C        -3.6141416119       -3.0016490530       -4.7423413421
 C        -2.7985145045       -3.0905759076       -3.3897797078
 O        -3.2032638585       -2.3435418845       -2.5571970600
 C        -1.7074909610       -4.1271290938       -3.2168161449
 C        -1.5098001150       -4.1832535930       -1.6917523388
 C        -0.1447854312       -4.8662418868       -1.4705175783
 O         0.8467602725       -4.4016858263       -1.9575907453
 C        -0.0653320533       -6.4285867832       -0.9263368921
 C        -0.6878858027       -6.6641756808        0.4454320974
 O        -1.4352417245       -5.8150058027        0.9241274484
 C        -0.5926973227       -7.9887554640        1.0701024510
 C        -2.0006964656       -8.6864240097        1.3388015786
 C        -2.0365371175       -9.6268996224        2.6270423436
 O        -1.0654041308       -9.7601403650        3.3287930288
 C        -3.2484065272      -10.4185483922        2.8961082607
 C        -4.4895120368       -9.5356246819        2.4302544293
 O        -4.6342790684       -9.3432071939        1.2124755981
 C        -5.4880776805       -8.9434448179        3.4018477749
 C        -3.1859790209      -11.6900846056        2.0447240572
 C        -3.3148441389      -10.7050965682        4.4424269972
 C        -0.9243418286       -7.2326723913       -1.9217053882
 C         1.4324335307       -6.8665006509       -1.0335452209
 C        -5.1047587541       -2.8608237772       -4.3551007583
 C        -3.3550119532       -4.2001987192       -5.6432924039
 C        -0.9561864678        2.3151843591       -1.7124927367
 C        -2.2845309225        4.0842002492       -2.7671072506
 C         3.1813878412        1.9894637079       -6.0532314333
 C         2.3128092543        0.9462780687       -8.1182904355
 C         2.8858388907       -5.2172428639       -3.9165423202
 C         4.0339092843       -5.4768814055       -6.0832741235
 C        -2.2192502057       -5.1651068375       -9.8945318018
 C        -0.5582298881       -4.3317620332      -11.5310194701
 C        -5.1464433963        2.0281561886       -9.2253149688
 C        -6.0639028772       -0.2004349190       -9.8315607345
 C        -2.8551152390        1.2697844686      -16.1723776392
 C        -4.8271036292        2.7278831662      -16.7123731086
 C        -8.7238079408       -2.8441714974      -18.5387499971
 C        -8.1458199476       -2.2937882424      -21.0802413469
 C       -12.3676701823        3.2602650905      -21.1926751424
 C       -12.7301638308        1.6677542791      -23.0463258284
 C        -5.8236437188        2.5250516531      -25.3984065371
 C        -4.9864233460        0.5289970733      -24.1788321068
 H        -5.2677265362        5.0112568922      -23.5990479407
 H        -4.0543682824        4.0579013797      -24.5128947362
 H        -3.7313098926        4.5240121562      -22.9481519709
 H        -8.2427764230        1.7452975125      -25.3607258581
 H        -8.2981476963        3.2196199059      -24.2843723910
 H        -9.6897965081        0.6485945720      -23.5983018883
 H       -10.4929110147        1.7943159783      -24.5415526154
 H       -11.2743703101        1.4634797888      -18.9617561087
 H        -9.8438282719        1.8452638219      -19.6860134702
 H       -10.5175775816       -1.1698861699      -19.4610912769
 H       -10.1221240129       -0.3605007953      -17.9791410044
 H        -6.1466736054       -2.6398734872      -17.2396057860
 H        -6.9007781795       -1.0379889106      -17.1263356110
 H        -3.9487632184       -1.5099203348      -18.0909026009
 H        -4.2615125030       -1.4219006949      -16.3728242442
 H        -6.9833393216        1.6608919253      -14.2538416173
 H        -5.5908777190        2.6179033198      -13.7765201921
 H        -6.2491384527       -0.1269787469      -12.4479991709
 H        -6.9649660196        1.4579987382      -12.0297844496
 H        -2.2005228826        0.6353440656      -11.3232126306
 H        -3.2531685925       -0.5107905336      -11.8471541471
 H        -0.6911705265       -0.9799107166      -10.1122904967
 H        -0.9487908534       -1.3051649796      -11.8310821651
 H         0.7024006292       -5.7017180208       -9.0194009325
 H        -0.4982555173       -5.5331326470       -7.5770305963
 H         1.7273164468       -3.5646792248       -7.7174098612
 H         2.3120966218       -5.2262349041       -7.9641273137
 H         3.0859960880       -2.5021302292       -3.3080124163
 H         1.5804427546       -2.3527533271       -3.9458341747
 H         3.7971044155       -0.4943552105       -4.7240621598
 H         2.3000728268       -0.0755693832       -3.7412853335
 H         0.7365166887        3.9859791347       -7.2319245232
 H         1.6645495875        3.5595459944       -5.6527714126
 H        -1.5028230213        3.6562891732       -5.7743691684
 H        -0.2680619945        4.7781229758       -4.9051954215
 H        -2.0639756472       -0.3301935968       -3.0129240382
 H        -1.2046914540        0.2616029065       -4.3664234233
 H        -3.1898928034        0.1181374135       -5.7750017366
 H        -4.2676725754       -0.2885899384       -4.5503325630
 H        -0.8389453119       -3.8930009993       -3.7865762591
 H        -2.1570709205       -5.0486259706       -3.6073730328
 H        -2.2799647961       -4.7669754436       -1.2364595175
 H        -1.6009528657       -3.2207004908       -1.1479683108
 H        -0.3251833602       -7.6918275683        2.1069953398
 H         0.0389509907       -8.8002257896        0.6217595622
 H        -2.2275242337       -9.3468503112        0.4860601995
 H        -2.8236548869       -8.0031822654        1.2914921382
 H        -6.4395813021       -9.5248017207        3.5141133358
 H        -5.7964343915       -7.9489907337        3.1452239018
 H        -5.1031322822       -8.8825295952        4.4278816214
 H        -4.1586282315      -12.1970335393        1.8325106484
 H        -2.5086588516      -12.3667157412        2.5510800099
 H        -2.8151192551      -11.6390504429        1.0359720291
 H        -4.2648878523      -10.9510129566        4.8682314039
 H        -2.9032537177       -9.8639557232        4.9863834455
 H        -2.7088419748      -11.5545610279        4.7322151060
 H        -1.2349384107       -8.2104398796       -1.5676601763
 H        -0.5138807323       -7.2093304671       -2.9100489634
 H        -1.9319656604       -6.7259533210       -2.1755200565
 H         1.6399937404       -6.7735285356       -2.0569440993
 H         1.7421213279       -7.8434032531       -0.7558664107
 H         1.9739023503       -6.0600861556       -0.5860416379
 H        -5.2522044984       -1.9164517477       -3.8173459006
 H        -5.4892904662       -3.5957061837       -3.6941040424
 H        -5.7281787971       -2.6844433581       -5.2791481806
 H        -4.1254401946       -4.9404418877       -5.4480011850
 H        -2.3159036216       -4.6645578261       -5.6534250841
 H        -3.5713463743       -3.9342143628       -6.6652000937
 H        -1.6691858012        2.5433934856       -0.9182244965
 H        -0.1210060890        2.9650796306       -1.5878614585
 H        -0.8172190227        1.2453516400       -1.8188708851
 H        -2.4650193071        4.6150560500       -3.6974477671
 H        -1.6750912881        4.8282425308       -2.2506126946
 H        -3.2853943785        3.9426539095       -2.1776997969
 H         3.3102455560        2.9377716155       -6.5582743201
 H         4.2067695293        1.5007791157       -6.0983408038
 H         3.1147322519        2.3335003811       -5.0072516533
 H         1.6801919351        0.2197974214       -8.5452119586
 H         3.2945482859        0.5590915883       -8.3979613918
 H         2.3347331700        1.8776234890       -8.6458233692
 H         3.1377941902       -6.2382035100       -3.9557340137
 H         1.8846014898       -4.9490193758       -3.4713895268
 H         3.6524042689       -4.7995605787       -3.2821655032
 H         4.1272652606       -4.9736120104       -7.0141220979
 H         3.7657012573       -6.5816265146       -6.2646175940
 H         4.9370701737       -5.4856357646       -5.5165286324
 H        -1.8203983983       -6.1109401585      -10.0932738838
 H        -3.1135685089       -5.1335945222      -10.4167749592
 H        -2.4775153383       -5.0475122554       -8.8302574375
 H         0.0733964802       -5.2481522141      -11.4203114799
 H         0.1768270453       -3.6347682780      -11.8067859180
 H        -1.4282337804       -4.6314148673      -12.2661656383
 H        -4.3089970501        2.6559557984       -9.2641351923
 H        -5.3094611547        1.7027105052       -8.1616173889
 H        -6.0297865089        2.5594623560       -9.6651313361
 H        -6.1004830706       -0.3407375532       -8.7690470381
 H        -5.8809189599       -1.1025285469      -10.3635886218
 H        -6.9194989094        0.3403581320      -10.1988779195
 H        -2.3721990601        2.0692328481      -15.6140173603
 H        -2.2539649569        1.3290005398      -17.0808639838
 H        -2.5604995508        0.4194270763      -15.6926430967
 H        -4.3861188609        3.4723579346      -16.0896919761
 H        -5.8745281617        3.0071248785      -16.7679407859
 H        -4.5232362854        2.9724744416      -17.7438314556
 H        -8.3270201656       -3.8402328252      -18.3762103940
 H        -9.7750606879       -3.0760711274      -18.9337378701
 H        -8.8012676962       -2.3940706515      -17.5612765558
 H        -7.6031546308       -3.1261771204      -21.3062456859
 H        -7.7872268310       -1.4779306229      -21.7142459908
 H        -9.2072984868       -2.4246909875      -21.2538311813
 H       -11.7445829899        3.5227844265      -20.2968780360
 H       -13.3574176589        3.0255725560      -20.7889437750
 H       -12.4799210052        3.9698295029      -21.9812731989
 H       -12.6985639912        2.5005299793      -23.7500977016
 H       -13.7796929248        1.5693376304      -22.7661500634
 H       -12.5417176491        0.7130489719      -23.4135270375
 H        -6.4219784225        2.0785007401      -26.2195086369
 H        -4.8142235988        2.6956505970      -25.9298545374
 H        -6.2485502527        3.4790948763      -25.2355445856
 H        -5.0082497861        0.0132795388      -23.2518457464
 H        -3.9483363657        0.6874358382      -24.3097150364
 H        -5.5337706700        0.0071869580      -24.9850811516
 Na       -5.8939506998        0.6465984261      -20.9222169366
 Na       -0.9230211113       -0.6329807168       -7.5593499146
