232

 C        -4.7709558246        4.2455265004      -23.0397774290
 C        -4.9869593245        2.7458173412      -23.1520109527
 O        -4.6915469735        2.0704179429      -22.1595614792
 C        -5.7807543826        1.9946296004      -24.1963034239
 C        -7.2775149852        1.8339848067      -23.5162630601
 O        -7.4284042482        1.2319724038      -22.4930378457
 C        -8.4550873256        2.0564360781      -24.5747483442
 C        -9.8244676237        1.7918947251      -23.9362258158
 C       -10.3424181997        2.5126414964      -22.6722010994
 O        -9.7359583382        3.4313249560      -22.1567945719
 C       -11.8766613849        2.0691493453      -22.1181871619
 C       -11.4694566660        0.7538289247      -21.1931820636
 O       -11.4525070687       -0.3663573944      -21.6654819953
 C       -10.7906206245        0.9746970186      -19.8362287886
 C       -10.2239125980       -0.2146433605      -19.1045066726
 C        -8.6363538541       -0.3873455577      -19.3158231067
 O        -7.8910942486        0.5521253799      -19.2895164588
 C        -7.9991344835       -1.8188826093      -19.4047692241
 C        -6.5508819790       -1.7732069176      -19.1243060449
 O        -5.7335526314       -1.6005442818      -20.0113317467
 C        -6.0266682920       -2.0754775687      -17.6088338718
 C        -4.7498187075       -1.2047805714      -17.2960543296
 C        -4.7009025580        0.4254296720      -17.4543861705
 O        -4.8105706508        0.9923881740      -18.4834785364
 C        -4.2682194113        1.2112321523      -16.1057676811
 C        -4.7342336453        0.6377345371      -14.7253176403
 O        -4.3741953072       -0.4549086302      -14.3346265879
 C        -5.6643855836        1.5001136635      -13.8887839825
 C        -5.8894924976        1.0076326734      -12.5141531690
 C        -4.8589528104        1.5539177533      -11.4787889098
 O        -4.3839528211        2.6459314971      -11.6439191602
 C        -4.6586769061        0.8415414256      -10.0955624271
 C        -3.2488946691        0.2176976640       -9.8836578267
 O        -2.9311665951       -0.1107308357       -8.7455609471
 C        -2.3972865492       -0.1304742828      -11.1675415866
 C        -1.5426845088       -1.3206030152      -10.8309851494
 C        -2.2846124936       -2.6207001578      -10.4375692520
 O        -3.5232895668       -2.6593941580      -10.2298719322
 C        -1.4241290481       -3.8828989136      -10.1804981731
 C        -0.2771178363       -3.6200542214       -8.9106860514
 O         0.1657927411       -2.5100041257       -8.7891183486
 C         0.0939093623       -4.8872418234       -8.1729618123
 C         1.5318687427       -4.9003056878       -7.5338752504
 C         1.5023272532       -4.7927010962       -5.9528028992
 O         0.5338240960       -4.8714305096       -5.2619258966
 C         2.9638737927       -4.6082836476       -5.3493611472
 C         3.1368832027       -3.0223360920       -5.5081646933
 O         3.5261109486       -2.5902700439       -6.6009436454
 C         2.5653325273       -2.1434881729       -4.4147813854
 C         2.7505577361       -0.6372100025       -4.7069350831
 C         1.7700603720       -0.1900214053       -5.7730111942
 O         0.9572305295       -0.9930202097       -6.2420216270
 C         2.0761694137        1.1904511619       -6.4408046422
 C         0.6459551456        2.0537030559       -6.6023545214
 O        -0.3214428363        1.4818983466       -6.9748002952
 C         0.5670478562        3.6002821085       -6.3635729175
 C        -0.6988273370        3.7683238583       -5.3979770735
 C        -0.3924896869        2.9451786900       -4.1021984739
 O         0.6822356752        2.4023662398       -4.0008723697
 C        -1.6014148660        2.6192861170       -3.0986515690
 C        -2.6875203271        1.8383609203       -3.8873659532
 O        -3.8343684116        2.2416032596       -3.9291792581
 C        -2.2910330831        0.3843198272       -4.2998701508
 C        -3.2686901823       -0.2724461117       -5.2543727766
 C        -2.9168663650       -1.7556490602       -5.4894535546
 O        -2.0111061334       -2.1559142228       -6.1788615991
 C        -3.6795758256       -2.8996191981       -4.7324172259
 C        -2.8186796336       -3.0281768641       -3.3313186097
 O        -2.8888157986       -2.1599227807       -2.5232264785
 C        -1.7578798118       -4.2433204004       -3.2058798273
 C        -1.4071300719       -4.5393985950       -1.7639512120
 C         0.0022812396       -5.1631048203       -1.5252275255
 O         0.9830506925       -4.4071228479       -1.5083453311
 C         0.0736046515       -6.6306571860       -1.0803102095
 C        -0.6204323486       -6.6151810183        0.3579536421
 O        -1.1137740748       -5.6145473298        0.8244068155
 C        -0.4646166944       -7.8633030005        1.3079403533
 C        -1.8414927138       -8.6710021194        1.4201514743
 C        -1.9277078197       -9.7213996146        2.5373448193
 O        -0.8921155217       -9.9700485180        3.1398313499
 C        -3.2806856544      -10.4683877400        2.8161417972
 C        -4.4723302740       -9.8043007540        2.2137087114
 O        -4.5012485674       -9.6819630683        0.9508146614
 C        -5.5952033764       -9.2890655649        3.0258735487
 C        -3.0909057259      -11.8972591660        2.2290353294
 C        -3.2155068511      -10.6108233961        4.3397189701
 C        -0.6189693166       -7.5867811577       -2.0699440501
 C         1.5202226188       -7.0983845319       -0.8056998499
 C        -5.1570116141       -2.3884839284       -4.3422016345
 C        -3.6920019601       -4.2339457576       -5.5682556208
 C        -1.0489741125        1.8242854645       -1.9638475900
 C        -2.2330878903        3.9842574805       -2.6476513841
 C         3.2179853333        2.0424999266       -5.7977028334
 C         2.4814284125        0.8239763991       -7.8842467647
 C         2.9217173767       -5.1100561261       -3.8814709436
 C         4.1570238692       -5.2576490880       -6.0672479826
 C        -2.2965690475       -5.1076181233       -9.8337559624
 C        -0.5661901265       -4.2633957050      -11.3950431917
 C        -4.7422895023        1.8173096584       -8.9450439657
 C        -5.6525650461       -0.3522420151       -9.8686825551
 C        -2.6756982722        1.0495056688      -16.1360908020
 C        -4.6610548926        2.6424509600      -16.3545157732
 C        -8.7802978765       -2.6942818019      -18.3907364252
 C        -8.2236402942       -2.4695664495      -20.8796243750
 C       -12.4661097282        3.2137152417      -21.1897885318
 C       -12.9813503828        1.5471059421      -23.0547170304
 C        -5.8088104950        2.7393876057      -25.5156441947
 C        -5.2986443498        0.6155941256      -24.3279733307
 H        -5.6803214374        4.7741186588      -23.3527456437
 H        -4.0001785904        4.6865217704      -23.7218462285
 H        -4.5401346178        4.5696853135      -21.9998034358
 H        -8.2816027667        1.2161137969      -25.3314247674
 H        -8.5205696172        3.0756684418      -24.9648829835
 H        -9.9383600393        0.6986255394      -23.7414619357
 H       -10.6281394517        1.8835859192      -24.7184099082
 H       -11.4694527651        1.6205333926      -19.2500136693
 H        -9.9919623211        1.6933384185      -19.9524601073
 H       -10.7823231347       -1.1163408998      -19.3983465685
 H       -10.3212001130       -0.2745957908      -17.9869854793
 H        -5.7160140337       -3.1057717184      -17.4818735385
 H        -6.6800196446       -2.0184948606      -16.8044876377
 H        -3.8865141251       -1.5907498916      -17.8259696617
 H        -4.4943591019       -1.3356184965      -16.1869631760
 H        -6.5193595897        1.6226154454      -14.5498988779
 H        -5.2189313699        2.4886809600      -13.7732342597
 H        -5.8948958172       -0.0585805594      -12.5871656919
 H        -6.8677004689        1.2815664687      -12.0960673606
 H        -1.8558770350        0.7862703203      -11.3321673882
 H        -3.0738208537       -0.1782324684      -12.0252391324
 H        -0.9344335822       -0.9604790460       -9.9411342010
 H        -0.8803229775       -1.5529633642      -11.7151964872
 H         0.0172860282       -5.6826357828       -8.7665443590
 H        -0.4572788139       -5.0519579092       -7.3005586999
 H         2.2004461221       -4.1183067214       -7.9184939928
 H         1.9139622857       -5.8752910469       -7.8220571408
 H         3.0614761510       -2.2563312102       -3.4364676060
 H         1.5338191218       -2.4197389446       -4.2036358806
 H         3.8108850729       -0.6052983594       -5.0824764530
 H         2.6333932486        0.0207190667       -3.8357000620
 H         0.4459039832        4.1320238653       -7.2564902246
 H         1.5302664116        3.9545240177       -5.8724397176
 H        -1.6470552915        3.4321319146       -5.7613733155
 H        -0.7973897133        4.8665577358       -5.0971710647
 H        -2.2373514398       -0.1979371153       -3.4160791233
 H        -1.2703599742        0.2968115465       -4.7943358223
 H        -3.3037114444        0.2988768058       -6.2020730454
 H        -4.3029833272       -0.1557225402       -4.7726002367
 H        -0.9211688552       -3.9636159429       -3.8577674241
 H        -2.1987430051       -5.1650025351       -3.6480696096
 H        -2.1481632620       -5.2446783304       -1.2706801979
 H        -1.4518353744       -3.6100025107       -1.2326360548
 H        -0.2844003994       -7.6704951713        2.3226994939
 H         0.2594898799       -8.5194574579        0.8852845577
 H        -2.2214162785       -9.1652583023        0.5468031288
 H        -2.6348891367       -7.8651545002        1.5858678037
 H        -5.9697661077       -9.9974500187        3.7794649186
 H        -6.4229328858       -9.0152970247        2.4381819068
 H        -5.3384708811       -8.4031573486        3.5860142360
 H        -3.8806590826      -12.4796044019        2.6992361883
 H        -2.1402612589      -12.3191220187        2.3896206245
 H        -3.3380344368      -12.0962794427        1.1827502488
 H        -3.6765141168      -11.5351041836        4.6860130515
 H        -3.6279276115       -9.7649663257        4.8729379669
 H        -2.1602069830      -10.6680518203        4.7415318601
 H        -0.3659636153       -8.6563035044       -1.7414547532
 H        -0.3629516972       -7.4908647966       -3.0903555071
 H        -1.7313700635       -7.3544236110       -2.0274755821
 H         2.3084993824       -6.6438361683       -1.4768723630
 H         1.5611324761       -8.1867114267       -0.8540576062
 H         1.6951238730       -6.7387974696        0.2541486633
 H        -5.2966257268       -1.8505521685       -3.3801379579
 H        -5.7488338068       -3.2944798298       -4.2532961079
 H        -5.6061688638       -1.8560654271       -5.1732006517
 H        -3.6486666410       -5.0970334558       -4.9364521702
 H        -2.7802054644       -4.1699154336       -6.2057390734
 H        -4.5251113022       -4.4351480675       -6.1364264210
 H        -1.9188254282        1.5688845705       -1.3294523817
 H        -0.4282806240        2.5211943458       -1.4129596125
 H        -0.5517991521        0.9714784335       -2.4130313280
 H        -2.8731404782        4.2912215127       -3.4073083679
 H        -1.4874730905        4.7825704996       -2.6045564362
 H        -2.9154506500        4.0050351477       -1.7833928674
 H         3.3917234350        3.0655011550       -6.1353903154
 H         4.1175247095        1.4494561609       -5.6585424044
 H         2.9219822136        2.1561730232       -4.7408225498
 H         1.5805614139        0.4980022873       -8.3842623283
 H         3.0173666540       -0.1848729154       -7.9512418139
 H         2.9969098085        1.5762156968       -8.5305517218
 H         2.7930682134       -6.1995974526       -4.0283093195
 H         2.2339217520       -4.6372224821       -3.1254910387
 H         3.9174156527       -4.9461789001       -3.4718356427
 H         4.2071519467       -4.7575888991       -7.0256875985
 H         3.9131690074       -6.4157753465       -6.2193392791
 H         5.0737840027       -5.1978642050       -5.5332191147
 H        -1.7926955364       -6.0712672292       -9.7103527181
 H        -3.0268919219       -5.2312852009      -10.6706709861
 H        -2.9543350254       -4.8769944176       -8.9290047665
 H        -0.3936855244       -5.3536113555      -11.2760602354
 H         0.3477210119       -3.7215176202      -11.4975594249
 H        -1.2383151347       -4.3245017054      -12.3353471187
 H        -4.2799779491        2.7290217380       -9.3018678374
 H        -4.2132937720        1.4887946896       -8.0541725019
 H        -5.7977068498        1.9625334414       -8.6726657865
 H        -5.4045326522       -0.7329986789       -8.8321297904
 H        -5.7936799310       -1.0750813380      -10.7369944241
 H        -6.5821346888        0.2151850442       -9.7719011984
 H        -2.1045366413        1.7710254989      -15.4443965733
 H        -2.1700176735        1.2841318983      -17.0864513047
 H        -2.2772193497        0.1031723414      -15.8505338882
 H        -4.3448655596        3.2847744607      -15.6283055262
 H        -5.6906883612        2.9253665551      -16.4583866007
 H        -4.2730374025        2.9691123639      -17.3381588773
 H        -8.1732365868       -3.6296043511      -18.3187942127
 H        -9.7174457455       -3.0578137207      -18.8850570120
 H        -8.9726876598       -2.3024541093      -17.4560943286
 H        -8.0435988018       -3.5219746983      -20.8312287513
 H        -7.4359021307       -1.9806988716      -21.4168728450
 H        -9.2329979629       -2.2773715355      -21.3893256821
 H       -11.7179051672        3.5199774649      -20.4305863396
 H       -13.1910766783        2.7319661783      -20.5941230453
 H       -12.8963241232        3.9508131495      -21.7590120972
 H       -13.3702125173        2.2118936568      -23.8477217303
 H       -13.8971249510        1.3296450906      -22.3889077708
 H       -12.5955376560        0.6046798567      -23.4533655756
 H        -6.2278958679        2.1153055528      -26.2630073387
 H        -4.8078440509        3.0012610050      -25.8851386434
 H        -6.2958766174        3.6859126230      -25.5923746698
 H        -5.2542832460        0.0675625090      -23.4066120872
 H        -4.2234413765        0.8758523083      -24.5470264064
 H        -5.7846107379        0.0469583509      -25.1535406062
 Na       -5.8254726476        0.7313131220      -20.6419762310
 Na       -0.9336166245       -0.7636048817       -7.7240619251
