232

 C       -20.5933983742       -5.1481420004       -5.7627509963
 C       -20.4927286214       -5.8421295238       -4.4093683183
 O       -19.7467838615       -6.8238050306       -4.2789037157
 C       -21.4823230252       -5.4552223920       -3.1982332071
 C       -20.4080547491       -5.0361749187       -2.0325930117
 O       -19.9464050281       -5.9034243915       -1.3594759823
 C       -20.2467121267       -3.4982607520       -1.8004408817
 C       -18.9443983994       -3.2432729888       -1.0688892794
 C       -17.8169582794       -3.7168393786       -2.0749340685
 O       -18.0498175285       -4.2415974002       -3.1621893791
 C       -16.2968507456       -3.5069197410       -1.5882786227
 C       -15.9621886401       -4.9724527603       -0.8319347910
 O       -16.8447521892       -5.5488851862       -0.2581059909
 C       -14.5583291204       -5.5632204739       -0.9330126309
 C       -14.6646878292       -7.1429154953       -0.8545991036
 C       -15.1308104336       -7.7908473156       -2.1628845011
 O       -16.1367621393       -7.4579605893       -2.8063311553
 C       -14.2716844127       -9.1090864529       -2.4348269289
 C       -12.8453907977       -8.7052363583       -3.0015600797
 O       -12.6469406705       -7.6998483741       -3.5907655489
 C       -11.6478524758       -9.7186762666       -2.7917157084
 C       -10.5005655100       -9.2037075571       -3.5866701591
 C        -9.1146969245       -9.8516128956       -3.2419020565
 O        -8.9368691831      -10.5189410210       -2.2412776367
 C        -7.8723177798       -9.7006786671       -4.1513067950
 C        -7.6576098792       -8.4356713591       -5.1000961605
 O        -8.1173343605       -7.4130735994       -4.7247321702
 C        -6.5745805292       -8.4704936231       -6.1821753514
 C        -6.1322240084       -7.0872027070       -6.6096634639
 C        -7.2729111905       -6.2637520151       -7.3254133448
 O        -8.2934270333       -6.8143909427       -7.7240317682
 C        -7.0145681911       -4.6993638330       -7.6743642638
 C        -5.7746893911       -4.5789665239       -8.6021899911
 O        -4.8656490287       -3.8294356076       -8.2818355253
 C        -5.6617274873       -5.2205513124      -10.1401509623
 C        -5.4568233818       -3.9734687027      -11.0425185403
 C        -5.6818679753       -4.3904348481      -12.5351937227
 O        -6.4599311271       -5.2778834883      -12.8148909765
 C        -4.9328580397       -3.5886758520      -13.7053684414
 C        -4.0878419407       -2.3689348679      -13.2130116677
 O        -4.5901675188       -1.6112631562      -12.3839140770
 C        -2.7017090839       -2.0784501687      -13.7228024446
 C        -1.7329235887       -2.4104187450      -12.5860301743
 C        -0.3302513696       -1.9300705716      -12.9197975655
 O        -0.2277603938       -1.1967962869      -13.8948103230
 C         0.9903454832       -2.3857455038      -12.1527436593
 C         2.1200053245       -1.2877576636      -12.1571080707
 O         3.1298437987       -1.4230192368      -12.8168810212
 C         1.8404605804        0.1103660294      -11.4831467087
 C         3.1495514440        0.7971610005      -11.0600378919
 C         2.9932684156        2.1177298578      -10.3899158206
 O         1.9284623036        2.5118734681      -10.0310733355
 C         4.3409816644        2.8223201003      -10.0160680943
 C         4.6041029527        3.6247486016      -11.3405127215
 O         5.4551209800        3.1556072954      -12.0058324715
 C         3.7151878312        4.8307705577      -11.7516255695
 C         4.4002878864        6.1172694363      -11.4673225500
 C         5.6039523028        6.3859113422      -12.5292934782
 O         5.6545665463        5.8008569851      -13.6027925903
 C         6.7061265768        7.4267514247      -12.0701142295
 C         7.5891640414        7.6465519967      -13.3114104862
 O         7.3807641229        8.6131218207      -14.0169501790
 C         8.7426933822        6.6261124755      -13.6632016877
 C         9.0969356328        6.9045779696      -15.1277702683
 C         8.2932103097        6.1515080605      -16.3948077237
 O         7.3663252618        5.3322762050      -16.2552060701
 C         8.6976227668        6.6566980267      -17.7622166495
 C         9.0434464617        5.2602181986      -18.5905942053
 O         9.7659691408        4.4603027957      -18.0717483744
 C         8.4722067530        5.1313502513      -20.0667475655
 C         9.0644862074        3.9431154227      -20.7148268102
 C         7.9679620245        2.8756536775      -21.0317527649
 O         6.8886856790        3.2119286112      -21.4077266109
 C         8.5148150099        1.3694179201      -20.8153688328
 C         9.0134588735        1.2776876435      -19.3074155880
 O        10.1844356716        1.4700523734      -19.1698415260
 C         7.9856325999        1.1652539362      -18.2583420942
 C         8.4825305705        0.7464863279      -16.8400964993
 C         7.5278920666        1.1069002247      -15.7918948067
 O         7.6520166046        2.2038779521      -15.2459247450
 C         6.1816971492        0.3336265046      -15.5861424161
 C         5.0000522149        1.1535462313      -16.3133557616
 O         4.9802375045        2.3681647276      -16.0343834778
 C         4.1990189187        0.6915255798      -17.4478169307
 C         6.0541355373       -1.1447238247      -16.0159407076
 C         5.7274923624        0.4491066157      -14.1607648022
 C         7.3576674264        0.3603324942      -21.3198426679
 C         9.6833281673        1.0870039402      -21.8883832662
 C         7.4707868276        7.4213704170      -18.3395279528
 C         9.8467879955        7.6951501748      -17.8326134160
 C         5.9864598033        8.7579238133      -11.7593881136
 C         7.3263447461        6.9351250288      -10.7814314770
 C         3.9347050203        3.8087333329       -8.8051521331
 C         5.4717484373        1.8902104563       -9.4738758233
 C         0.6863118589       -2.7027597533      -10.6987096980
 C         1.6450894669       -3.6173418673      -12.8455779598
 C        -4.2726336853       -4.6501986744      -14.6249210926
 C        -5.9944273549       -2.8951433191      -14.5682051968
 C        -8.2601206655       -4.0389022020       -8.4083580566
 C        -6.7474215014       -3.8961148301       -6.3608757329
 C        -6.7097388386       -9.6971771041       -3.2157733557
 C        -7.8335030335      -11.0705419964       -5.0419214643
 C       -14.2507315844      -10.0203252356       -1.1960512770
 C       -15.0624424285       -9.9356713811       -3.5782881742
 C       -15.3029349550       -3.1763155187       -2.8547864543
 C       -16.1839955371       -2.3521940874       -0.5576132252
 C       -22.3786879808       -4.2468216598       -3.5061418880
 C       -22.2861177279       -6.6385557159       -2.7658067800
 H       -19.7457502953       -4.4886608532       -5.7634014680
 H       -21.5549836668       -4.8174594292       -5.9829438403
 H       -20.4893889464       -5.8677654775       -6.5724640878
 H       -21.0646383431       -3.1984646717       -1.1271398760
 H       -20.3873934257       -2.9324935899       -2.7129016368
 H       -18.9245160506       -3.7592408768       -0.1077425129
 H       -18.8730513593       -2.2219483206       -0.7901715033
 H       -13.9254604583       -5.1835525428       -0.1295545052
 H       -14.0751183101       -5.1681847287       -1.8803810805
 H       -15.5075234334       -7.2731878207       -0.0897321681
 H       -13.7390213892       -7.5189233075       -0.5478385834
 H       -12.0401581141      -10.6991053414       -3.2214072630
 H       -11.3744677474       -9.9050132567       -1.7635557488
 H       -10.2485597074       -8.1959846985       -3.5279266077
 H       -10.7933712459       -9.3671998449       -4.6102773342
 H        -6.9468519816       -9.0995911377       -6.9955926068
 H        -5.7607817818       -9.0447738095       -5.7668606613
 H        -5.3794172278       -7.0935281755       -7.5045513523
 H        -5.7598132272       -6.4163559648       -5.8347813062
 H        -6.5936531725       -5.6918767791      -10.3526427708
 H        -4.8793652805       -6.0224067958      -10.4794069447
 H        -4.5017963252       -3.5914450436      -10.8956034440
 H        -6.1208573634       -3.0729254438      -10.9692741651
 H        -2.6406455613       -1.0004646167      -13.9611339451
 H        -2.3413755057       -2.5814123123      -14.6083053590
 H        -1.5188918948       -3.5315288813      -12.4325556405
 H        -1.9868276059       -1.9630163248      -11.6879158746
 H         1.1188058345        0.2165801688      -10.6792411450
 H         1.3516414068        0.6967718276      -12.2386805083
 H         3.6966862197        1.1169628830      -11.9139075945
 H         3.8509589329        0.1151369573      -10.4671690748
 H         2.6916997614        4.7989753085      -11.2490414004
 H         3.7030007366        4.8224822156      -12.8163709878
 H         4.5689370617        6.0298091482      -10.3971131795
 H         3.7455928524        6.9385231322      -11.6792576442
 H         8.4889169440        5.6422343273      -13.3431774296
 H         9.6193699309        6.9284004492      -13.0841571313
 H        10.2339821683        6.7160440447      -15.3505280268
 H         8.8815845852        7.8702947402      -15.3234646366
 H         8.7792856018        6.1212698115      -20.5029260958
 H         7.3755272357        5.0142354830      -20.1137010029
 H         9.8848228564        3.4044678185      -20.0819649225
 H         9.4548166747        4.1916877560      -21.6976300739
 H         7.3435657457        0.3785931459      -18.5638726615
 H         7.5665675563        2.1957268408      -18.3516776276
 H         9.3517104522        1.3557959379      -16.6583530284
 H         8.7290660020       -0.2548203253      -16.9227129670
 H         4.6390630487        0.1712012339      -18.2764532796
 H         3.4027816063        1.4635689749      -17.8042743734
 H         3.4666138700       -0.0235336680      -16.9896259207
 H         5.0072017234       -1.5975632261      -15.9326075236
 H         6.6952969035       -1.7782773415      -15.4116338028
 H         6.4410962122       -1.2969216484      -17.0413720645
 H         4.6703116139        0.1232405206      -14.0530495359
 H         5.7524009520        1.4028211860      -13.7238031323
 H         6.3816289022       -0.1666927667      -13.5346843875
 H         7.3063906174       -0.5653458291      -20.7655341323
 H         7.4078989333        0.1294773523      -22.3500851949
 H         6.4198406050        0.8626895102      -21.2755844455
 H        10.2142446538        0.1226644986      -21.6126770304
 H        10.4176531649        1.9231886104      -21.8838837851
 H         9.1582835860        0.9249377197      -22.8595458573
 H         7.0845349200        8.0829276596      -17.5588075507
 H         6.6535032754        6.7156325478      -18.4997629937
 H         7.6514074126        7.7975888600      -19.3225097281
 H        10.6621175006        7.2366330512      -17.3865490355
 H         9.5326320630        8.6054921197      -17.2553698047
 H        10.0199711231        7.9581117334      -18.9196303193
 H         6.5665277320        9.3841713158      -11.0567025001
 H         5.0689266315        8.5501755061      -11.2226666861
 H         5.6601792578        9.2075505239      -12.6493225536
 H         6.8456895971        7.2966189821       -9.8593980381
 H         8.2914362916        7.2844119865      -10.8345505653
 H         7.3488535987        5.8375065750      -10.8000508415
 H         4.6471435842        4.5005116936       -8.4301988696
 H         3.6748714458        3.1164441707       -8.0296744782
 H         2.9885583890        4.1461033308       -9.2274922741
 H         6.1311018353        2.4358183348       -8.8002613634
 H         6.0782033836        1.4246190376      -10.2577399280
 H         5.0283680188        1.0776228171       -8.8359025281
 H         0.0675100206       -1.9526854398      -10.1481585945
 H         1.6015744297       -2.8474337650      -10.1823237258
 H         0.0454747200       -3.5741896207      -10.5280802705
 H         0.9155384632       -4.3276655204      -13.3058191759
 H         2.3106112127       -4.1792755274      -12.1350913264
 H         2.4016867603       -3.3547407449      -13.6654591168
 H        -4.4205070573       -4.4479274383      -15.6824222482
 H        -4.7585819642       -5.5607617200      -14.4802224356
 H        -3.2012319596       -4.7307894234      -14.5598361276
 H        -5.4628935669       -2.4983472510      -15.3626007096
 H        -6.4149865956       -2.0738268240      -13.9967074258
 H        -6.7740343706       -3.5773415048      -14.8081177310
 H        -9.1614467642       -4.6868197379       -8.4027307989
 H        -8.1319073734       -4.0278115804       -9.5304825468
 H        -8.5618569220       -2.9708440633       -8.0804967722
 H        -7.5711163510       -3.2512325600       -6.1064171299
 H        -5.8749148133       -3.2082263529       -6.5741538150
 H        -6.6029811286       -4.5368296174       -5.4912422079
 H        -6.4140552186      -10.7134786830       -2.9019002994
 H        -6.9426447629       -9.0646069592       -2.3239648764
 H        -5.7909847419       -9.2438202424       -3.6247584104
 H        -8.0944584221      -11.9948739284       -4.6338523810
 H        -6.8669503844      -11.2782249751       -5.5532802782
 H        -8.6131033551      -10.9577519954       -5.8248212466
 H       -13.3372042200       -9.8963105895       -0.6104141926
 H       -14.4639504968      -11.0803042164       -1.5669371743
 H       -15.0490741020       -9.8378619473       -0.4808124309
 H       -15.3009331628       -9.3634464126       -4.4807874193
 H       -15.9743834215      -10.3542810985       -3.2306371572
 H       -14.4972362669      -10.7483970880       -3.9592620318
 H       -15.1583494169       -4.0266777092       -3.5565356009
 H       -14.3272875338       -2.8689102077       -2.5134234841
 H       -15.8792693920       -2.3940483420       -3.2003050993
 H       -16.8668915233       -2.3276944144        0.2008323783
 H       -16.2124105130       -1.3569886926       -1.1067417998
 H       -15.2813853195       -2.4824142148       -0.0416837963
 H       -21.7301369238       -3.4036101815       -3.8392964168
 H       -22.8572175442       -3.9754966020       -2.5746702285
 H       -23.0951111527       -4.4973886301       -4.1821001254
 H       -22.9401904401       -6.3224340767       -1.9700377234
 H       -21.6600355813       -7.4383582691       -2.3749058193
 H       -22.8818305657       -7.0346411799       -3.6380473128
 Na      -18.0793494849       -6.5261093738       -2.4847443246
 Na        6.2698858814        3.7971669818      -14.5328797161
