232

 C        -4.6433347010        4.0317213338      -22.4941695001
 C        -5.1289840022        2.6281831860      -22.5217409824
 O        -4.7933708443        1.8086866580      -21.6387882976
 C        -5.9854621198        2.1102711636      -23.8434214313
 C        -7.4861786397        1.6536805052      -23.3824597632
 O        -7.6130521266        1.2017343644      -22.2808443914
 C        -8.7106346393        1.9330708383      -24.3068719744
 C       -10.0432917248        1.3360744222      -23.8801861690
 C       -10.6260428210        2.2520865446      -22.8362871454
 O        -9.9366434037        3.1012512961      -22.3080807534
 C       -12.0152078952        1.7933186288      -22.2073619364
 C       -11.6148174566        0.5903161650      -21.1833677278
 O       -11.5239313610       -0.5208508144      -21.5908973124
 C       -11.0877854606        0.9635959487      -19.7306345536
 C       -10.5537955684       -0.2307472661      -18.8944979831
 C        -8.9781409950       -0.3024915312      -19.1483401319
 O        -8.3758147697        0.6968321033      -19.4989498053
 C        -8.2524016634       -1.7928162625      -19.1631944587
 C        -6.7953807239       -1.5450380871      -18.8845132690
 O        -6.0084635020       -1.4671980590      -19.8312151509
 C        -6.1878214845       -1.6881194388      -17.5039212706
 C        -4.8194043980       -1.0893301989      -17.3410200293
 C        -4.7082343086        0.4855102888      -17.2380149801
 O        -5.3629456225        1.2136930408      -18.0103054565
 C        -3.6987149810        1.0905679919      -16.2407926181
 C        -4.2194978382        0.5616866803      -14.7817834076
 O        -3.7705751157       -0.4975861330      -14.4221452223
 C        -5.0940084289        1.5295672468      -13.9234781005
 C        -5.5106440907        0.8747285293      -12.6084089490
 C        -4.9356024830        1.7272426585      -11.3935315838
 O        -4.7161469962        2.9207606354      -11.5063804586
 C        -4.5923289212        0.9530740038      -10.0448325151
 C        -3.0678425553        0.3446918873      -10.1108873552
 O        -2.2576286800        0.5707643141       -9.1990801815
 C        -2.6116753312       -0.3753864685      -11.3733850496
 C        -1.5742367263       -1.3876593733      -10.8919632788
 C        -2.2155023238       -2.4863669916       -9.9964743807
 O        -3.0284891665       -2.1525039111       -9.1615781765
 C        -1.6217611143       -3.9761147526      -10.0673715031
 C        -0.3659717540       -3.9044267710       -8.9169881902
 O         0.2298584212       -2.8872492347       -8.7384760882
 C        -0.2350574906       -5.0968714063       -8.0775902171
 C         1.3092810144       -5.1794262753       -7.7098616707
 C         1.5589124183       -4.6325211639       -6.3367489931
 O         0.6306879637       -4.3509455554       -5.5887847587
 C         3.0272271740       -4.1497498062       -5.8584966471
 C         3.0792655119       -2.5803535219       -5.7932052528
 O         3.4484374012       -1.9282260793       -6.7324074640
 C         2.7559845075       -1.8509823283       -4.4927543257
 C         2.6886075456       -0.3210865617       -4.5590738488
 C         1.7932844887        0.2533220536       -5.7273309608
 O         0.6466017750       -0.2834805747       -5.8546873956
 C         2.1311848586        1.3231707535       -6.7063305071
 C         0.8513821451        2.2817221690       -6.7860843311
 O        -0.1424493452        1.7637887824       -7.2690818889
 C         0.8142885518        3.6994920723       -6.1409012168
 C        -0.4576642496        3.7547790269       -5.1775310418
 C        -0.4454427672        2.6490633685       -4.1250316711
 O         0.5181965165        1.9282648028       -4.0586982839
 C        -1.7224006369        2.3872563340       -3.2502398335
 C        -2.6676692634        1.7429151798       -4.3492794976
 O        -3.2522400726        2.5425706948       -5.0509128523
 C        -2.7011049914        0.2221741508       -4.2763357656
 C        -3.3141205734       -0.4211178661       -5.5216583772
 C        -3.0817080798       -1.9362586289       -5.5654420510
 O        -2.2019810364       -2.4049283016       -6.2696934011
 C        -3.7414315613       -2.8956153650       -4.4799813450
 C        -2.5848092175       -2.8630430651       -3.4283257041
 O        -2.7015223285       -2.0487903624       -2.5107353643
 C        -1.6695215847       -4.0276459410       -3.2544509646
 C        -1.5734308648       -4.6129782659       -1.8695262262
 C        -0.1188606212       -5.2720820543       -1.6102999044
 O         0.7993664694       -4.6785809709       -2.0835305346
 C         0.1630049525       -6.5546644466       -0.7566945088
 C        -0.6221805845       -6.6880710795        0.5055902966
 O        -1.2601974470       -5.7371324235        0.9704940762
 C        -0.4951800510       -8.1181626435        1.2230868221
 C        -1.8336591339       -8.5974495227        1.8417999674
 C        -1.6588050579      -10.0423693511        2.3273588750
 O        -0.5750686764      -10.5246068385        2.4784557682
 C        -3.0619999071      -10.8449724726        2.7593448326
 C        -4.1245596867      -10.4633924574        1.6636866127
 O        -3.8811979621      -10.4257811049        0.4816118569
 C        -5.5633964316      -10.0555906160        2.1159691926
 C        -2.6907635789      -12.3541242170        2.6313333462
 C        -3.4573586896      -10.4575786454        4.2557936044
 C        -0.3461012005       -7.7359982807       -1.6522890094
 C         1.7571699877       -6.6174852004       -0.5142573775
 C        -4.9808125660       -2.1334751748       -3.7805033963
 C        -4.1285509408       -4.1859987936       -5.1170672728
 C        -1.4132450594        1.5450781207       -2.0336795568
 C        -2.3490388169        3.6816504483       -2.7492983040
 C         3.5208238652        2.1133578034       -6.3472283379
 C         2.3683906297        0.7553831130       -8.2148796814
 C         3.2908693713       -4.6899522009       -4.4180738728
 C         4.1886835550       -4.5694732295       -6.8231106230
 C        -2.6835892181       -5.0014289858       -9.7717702172
 C        -0.9680108312       -4.3806896417      -11.4118748720
 C        -4.5417691849        1.9923627512       -8.8444032664
 C        -5.4294102169       -0.3424490091       -9.8072856976
 C        -2.2831763875        0.5273126024      -16.4160827296
 C        -3.4787783395        2.5868414193      -16.4274944447
 C        -8.9772348979       -2.6650191215      -18.0109985005
 C        -8.5452336208       -2.4006843023      -20.5292162890
 C       -12.4691700530        3.0226242597      -21.4150082389
 C       -13.1483655479        1.2559869823      -23.0993716508
 C        -6.2692340687        3.1800918771      -24.9228979979
 C        -5.2355635003        0.7585529259      -24.2463750031
 H        -5.0898028649        4.5965673323      -21.6339814811
 H        -4.8614583238        4.6020401124      -23.3234682283
 H        -3.6170490899        4.0354500297      -22.2457826058
 H        -8.3125695790        1.6183814990      -25.3488114573
 H        -8.8360416582        2.9773434034      -24.3428659771
 H        -9.8764227300        0.3674200411      -23.4076549662
 H       -10.6602545505        1.2484432646      -24.7498932194
 H       -11.9378126389        1.5302878819      -19.2571854574
 H       -10.2265453286        1.5662488692      -19.9960732245
 H       -10.9291587337       -1.1858468769      -19.2125843892
 H       -10.7933393778       -0.2473224926      -17.8224572950
 H        -5.8912234685       -2.7692832688      -17.2321339697
 H        -6.7818468430       -1.4034393329      -16.6244405141
 H        -4.1500079650       -1.3701874662      -18.1294308409
 H        -4.4170148040       -1.4507654838      -16.3068566199
 H        -5.9222850362        1.7470391989      -14.6079962813
 H        -4.5504039115        2.4727815677      -13.6917771946
 H        -5.1929192771       -0.1614742248      -12.5571340885
 H        -6.6113502690        0.8636238105      -12.4541872986
 H        -2.1362134228        0.3835317251      -12.0520990383
 H        -3.5212467257       -0.9415864460      -11.7187073228
 H        -0.7685931719       -0.9161779227      -10.4554898147
 H        -1.1892157836       -1.8492189176      -11.7871735184
 H        -0.6526064597       -6.0545088725       -8.5137162285
 H        -0.7238367012       -4.9754978945       -7.1489716164
 H         1.8894327064       -4.5529232410       -8.4548406709
 H         1.7635040134       -6.1900705511       -7.7410491723
 H         3.5091805480       -1.9670622543       -3.6913551831
 H         1.7354954830       -2.1611520960       -4.1947753576
 H         3.6827720630        0.0788569108       -4.5097636487
 H         2.2547897791        0.0797916617       -3.6332661567
 H         0.6903215885        4.5007351587       -6.8017399032
 H         1.6904844169        3.8554226840       -5.5371427564
 H        -1.3782150967        3.5707443712       -5.7013764308
 H        -0.7065034045        4.7270750154       -4.8068167543
 H        -3.2574283103       -0.0337263674       -3.4085391301
 H        -1.6395161600       -0.2151123398       -4.2698341845
 H        -2.7750452014       -0.0085415823       -6.3025755542
 H        -4.3836433851       -0.1851165017       -5.6147325638
 H        -0.6357942123       -3.7359325454       -3.4992271310
 H        -1.9922831240       -4.8188031065       -3.9613922033
 H        -2.2500178489       -5.3996461134       -1.5578128195
 H        -1.6475784891       -3.7878705227       -1.1387313553
 H         0.2926830526       -8.2430527527        1.9902826481
 H        -0.1605733031       -8.8546569230        0.4367164388
 H        -2.6139156197       -8.3966202744        1.0929167558
 H        -1.9473428046       -8.0026225010        2.8078001112
 H        -6.1318562138      -10.9517750904        2.4557858269
 H        -6.1231929223       -9.6259628142        1.2990689475
 H        -5.6395730759       -9.3634266562        2.9628331547
 H        -3.5429383465      -12.9253069402        3.0709464025
 H        -2.0240650904      -12.5976607578        3.4405373602
 H        -2.3722933691      -12.8079114443        1.7244928389
 H        -4.5033859246      -10.5070996106        4.4490751481
 H        -3.1943892323       -9.4112579465        4.3725674424
 H        -2.9110154705      -11.1176297431        4.9266598330
 H        -0.0979114103       -8.6408534712       -1.2652478335
 H        -0.0562777457       -7.5218287305       -2.6977804686
 H        -1.4204933367       -7.7865118811       -1.5283265828
 H         2.2591635060       -7.1973319705       -1.2213604007
 H         1.7865122119       -7.0959588239        0.4594095341
 H         2.2148093899       -5.6709021015       -0.3478862637
 H        -4.6626029516       -1.1668541117       -3.4383746949
 H        -5.3616862246       -2.6130724824       -2.9064726553
 H        -5.8115863316       -2.0402690133       -4.5509639346
 H        -4.4185547580       -4.9090322611       -4.3572012929
 H        -3.2376331006       -4.6413360762       -5.6621050531
 H        -4.7912673476       -3.8526496406       -5.9170588722
 H        -2.2996337472        1.1999111891       -1.5208159373
 H        -0.9009403132        2.2050085934       -1.3489822112
 H        -0.6527882020        0.7646989043       -2.2694156772
 H        -3.0941219107        4.1384314896       -3.4615035832
 H        -1.7721111619        4.5098673040       -2.4153489902
 H        -2.9357615862        3.5063290034       -1.7916616932
 H         3.6319535002        2.8232372495       -7.1042555226
 H         4.4168857149        1.4784356998       -6.6107808671
 H         3.6352375451        2.5835420250       -5.3657141026
 H         1.4917821788        0.8779467809       -8.8609738120
 H         2.6614521664       -0.2624716515       -8.0931498178
 H         3.1618188791        1.2065150501       -8.7705605849
 H         3.5225812810       -5.7201731763       -4.5264353247
 H         2.3847954249       -4.6319925550       -3.7664906007
 H         4.2275844586       -4.3103441040       -4.0428052317
 H         3.7610855230       -4.4572877890       -7.8190001663
 H         4.3517109048       -5.5275591788       -6.6786696259
 H         5.1035977296       -3.9404248849       -6.7662187758
 H        -2.4225537705       -6.0431920156       -9.9670319200
 H        -3.4424293694       -4.8166729627      -10.4369790468
 H        -3.0648058181       -4.8723746476       -8.7531903506
 H        -0.6428049726       -5.3490292252      -11.2238520431
 H        -0.1000538529       -3.7625589835      -11.6867976594
 H        -1.7098912386       -4.2933587239      -12.2018682950
 H        -3.9838684491        2.8309390680       -9.1229500052
 H        -4.1589129280        1.5870689393       -7.8639677729
 H        -5.5420443836        2.4054140190       -8.5777063576
 H        -5.6374924339       -0.5057517779       -8.7418832400
 H        -5.1117951224       -1.2681795048      -10.1907472876
 H        -6.4355947813       -0.1735609896      -10.2536541431
 H        -1.5588259519        0.9481591480      -15.7650096658
 H        -1.7870991487        0.5820450221      -17.3817470375
 H        -2.1953143492       -0.5036607454      -16.2284395035
 H        -2.5606589664        3.0054675796      -15.8451220024
 H        -4.3589826154        3.2427859736      -16.2928678776
 H        -3.0450769719        2.7688818960      -17.4021670663
 H        -8.2671195180       -3.1087521247      -17.4311748478
 H        -9.5313880739       -3.4058516763      -18.5635172363
 H        -9.7116409908       -2.1669882001      -17.2708188168
 H        -8.3380829295       -3.5030946691      -20.4473972477
 H        -7.7205164118       -1.9072012854      -21.1936275744
 H        -9.5111127584       -2.0860577965      -20.9308458051
 H       -11.6115715431        3.5582139281      -20.9560206075
 H       -13.2542480755        2.7226020302      -20.6769362872
 H       -12.9882757542        3.8175368513      -22.0593827777
 H       -13.0176221208        1.6235518518      -24.1359970289
 H       -14.0827442454        1.4773850339      -22.6088655238
 H       -13.0879938943        0.2132621659      -23.1025090163
 H        -6.4699410542        2.7066506976      -25.9084500192
 H        -5.4111599648        3.8804902328      -25.1802156820
 H        -7.0402492547        3.8319784660      -24.6519722308
 H        -5.1464725630        0.1367598291      -23.3599069361
 H        -4.3174940651        1.1482528113      -24.5740218156
 H        -5.5747665023        0.0954873330      -25.0713728748
 Na       -6.2130220206        0.7743907433      -20.3646035508
 Na       -0.8734579578       -0.5060086681       -7.4248975351
