232

 C        -4.6078660383        4.1060312619      -22.4744461987
 C        -5.1225913801        2.6938582021      -22.5808387064
 O        -4.7907173168        1.9272393107      -21.7044871892
 C        -6.0722830076        2.2313178528      -23.7150523021
 C        -7.4441472777        1.6198777168      -23.2030851961
 O        -7.6602223067        1.0106464243      -22.1711381821
 C        -8.6377935660        1.8994509253      -24.2517078618
 C        -9.9584922990        1.2495768375      -23.8973680356
 C       -10.6481519262        2.1031101399      -22.7223210239
 O       -10.0037536416        3.0459427852      -22.3538036229
 C       -12.0296622406        1.7222694422      -22.0590819615
 C       -11.5443141366        0.4875178359      -21.2357357469
 O       -11.4424388794       -0.6435305743      -21.7211094417
 C       -11.1038022265        0.8807763562      -19.8154305753
 C       -10.5744758405       -0.1838193772      -18.9410228242
 C        -9.1089678173       -0.3448046407      -19.0981066289
 O        -8.4733859800        0.6122361161      -19.4028542867
 C        -8.4582237451       -1.7129293346      -19.1255368209
 C        -6.8177493555       -1.5796208633      -18.8871376778
 O        -6.1459295843       -1.4754515101      -19.8780006427
 C        -6.2471819740       -1.5944141612      -17.4866120701
 C        -4.8035469026       -1.0854416799      -17.2988129942
 C        -4.6168982136        0.4970201118      -17.2765112300
 O        -5.3573527289        1.1920070170      -18.0016763392
 C        -3.5691065526        1.0994083236      -16.2463221208
 C        -4.0704892592        0.6672350416      -14.7983141192
 O        -3.7065575235       -0.4264777276      -14.4253807516
 C        -5.1252860500        1.4425695405      -13.9640069176
 C        -5.5639077192        0.9636495967      -12.5531791071
 C        -4.7860959277        1.7414236888      -11.3900026333
 O        -4.6955422056        2.9253909123      -11.5303372165
 C        -4.4571224366        1.0138479102      -10.0894403226
 C        -2.9791452151        0.4574371613      -10.0540524921
 O        -2.3269201156        0.6309772505       -9.0777177473
 C        -2.6327809432       -0.4246567808      -11.2940981310
 C        -1.5795218348       -1.5011636710      -10.8963548670
 C        -2.1634845190       -2.5395863972       -9.9858061473
 O        -2.9561335563       -2.2625312584       -9.1546985484
 C        -1.6336055985       -3.9689221683       -9.9765282879
 C        -0.4733841954       -3.8723459298       -8.8938114122
 O         0.1722294721       -2.8048913636       -8.8360206013
 C        -0.0729143520       -5.1426874344       -8.1312578564
 C         1.4514483500       -5.1933843252       -7.7202029747
 C         1.6333572861       -4.4843446437       -6.3704333589
 O         0.6884156446       -4.1865388203       -5.5980344435
 C         3.1178632927       -4.1511498973       -5.8982863184
 C         3.0071938393       -2.5092757878       -5.8066036975
 O         3.4135043076       -1.8873520976       -6.7706743036
 C         2.5526382475       -1.8567046033       -4.4968070135
 C         2.5654392410       -0.2904518444       -4.6175622683
 C         1.7333803128        0.1737913888       -5.7569233880
 O         0.6577284779       -0.3538708008       -5.8306148622
 C         2.1263244878        1.4475000814       -6.9251923078
 C         0.9239955451        2.3226532585       -6.7569449359
 O        -0.1860550664        1.9623846185       -7.1492583243
 C         0.9849058278        3.6586020602       -6.0648024450
 C        -0.3077463687        3.8848182837       -5.2647780335
 C        -0.3492186813        2.6990507637       -4.2116200223
 O         0.6083482208        1.9266442030       -4.1172377698
 C        -1.6579990436        2.5395219484       -3.2847565992
 C        -2.7179882645        1.8793489712       -4.3476579750
 O        -3.3149848200        2.5196479910       -5.1583577751
 C        -2.8028864223        0.3298120916       -4.3435873319
 C        -3.3921874497       -0.3917144909       -5.5846740070
 C        -2.9789163492       -1.8235046730       -5.4879992756
 O        -2.1116968237       -2.3172575135       -6.2351544143
 C        -3.7713795875       -2.8018428671       -4.5328176502
 C        -2.8111050425       -3.0695808988       -3.1570611373
 O        -2.7951243057       -2.1748190997       -2.3612388153
 C        -1.6209121081       -4.1099148408       -3.1999527578
 C        -1.4368013373       -4.7342978515       -1.7851485206
 C        -0.0463434703       -5.2817947967       -1.6084306833
 O         0.8690789354       -4.6766333472       -2.1485689639
 C         0.2366001328       -6.6629700880       -0.8179502865
 C        -0.6157443534       -6.7628287447        0.5608946191
 O        -1.3685890249       -5.8875163425        0.8847626217
 C        -0.5477070382       -8.0416248188        1.3556101912
 C        -1.8631727647       -8.5319994954        1.9193440675
 C        -1.7077515650       -9.9733585870        2.3737573363
 O        -0.6249380033      -10.5840990210        2.2959614720
 C        -3.0162023313      -10.7459805076        2.8034558178
 C        -4.0920590374      -10.5241106897        1.6533565607
 O        -3.7219379225      -10.5943882002        0.5176981735
 C        -5.5388217980      -10.2161148109        1.9453036988
 C        -2.6398975184      -12.2949815691        2.5508918344
 C        -3.3424953755      -10.3338752310        4.1630192737
 C        -0.2390833950       -7.8405361455       -1.7384990522
 C         1.7229340822       -6.6692322935       -0.4564459890
 C        -5.0646320792       -2.2415193776       -3.7345304763
 C        -4.0592335202       -4.1394799994       -5.2434697773
 C        -1.5019588424        1.4736453321       -2.1271480046
 C        -2.3343424419        3.8043601049       -2.8198690498
 C         3.4566780654        2.0496236422       -6.4080131617
 C         2.1969324905        0.7806618766       -8.2234067826
 C         3.2972117202       -4.8676862112       -4.4850448859
 C         4.2402751769       -4.4799728767       -6.8248870170
 C        -2.8025260570       -4.9115835205       -9.6028015027
 C        -0.9363302322       -4.3799855008      -11.3288492188
 C        -4.6760104930        1.9344974426       -8.9136875580
 C        -5.4220731369       -0.1127687495       -9.9129458001
 C        -2.2150249264        0.4176919657      -16.3597442056
 C        -3.5239625396        2.6007432516      -16.6585007818
 C        -9.1756024898       -2.6136105810      -17.9723621572
 C        -8.7621704423       -2.2022084536      -20.5565904756
 C       -12.4301876192        3.0227646591      -21.2140336557
 C       -13.0848890951        1.2458833356      -23.1522888563
 C        -6.2326129923        3.1459406143      -24.8460577609
 C        -5.3790517303        0.8505400291      -24.1924431436
 H        -4.9917858505        4.5631630875      -21.5838607536
 H        -4.7674209358        4.8020791886      -23.3209310878
 H        -3.5810255144        4.0448284794      -22.2374647369
 H        -8.1878568115        1.5416664860      -25.2230776177
 H        -8.7662029050        3.0031657610      -24.3609852971
 H        -9.7781500523        0.1540585631      -23.7612137248
 H       -10.5542085557        1.4525315862      -24.8024959171
 H       -11.9711022752        1.3479815912      -19.3498332639
 H       -10.2554010260        1.5419533303      -20.0457985937
 H       -11.0801621636       -1.1470865101      -18.9015316285
 H       -10.6740786190        0.1637807523      -17.8918470932
 H        -6.1327631136       -2.5242434657      -16.9604433064
 H        -6.9471915353       -0.9793911120      -16.9143343081
 H        -4.2871955273       -1.4211247575      -18.2515584426
 H        -4.3280706500       -1.4794808892      -16.4100910858
 H        -6.0308415178        1.3936064054      -14.6555837891
 H        -4.8357676673        2.4546291498      -13.8585645050
 H        -5.5520109148       -0.1142091128      -12.4621358056
 H        -6.5796724689        1.2922222321      -12.4274330486
 H        -2.1607578032        0.2900972520      -11.9848183210
 H        -3.5584621135       -0.8946701058      -11.6503267593
 H        -0.6922357944       -1.0397656299      -10.4559311717
 H        -1.1559770563       -1.9450370470      -11.8346488095
 H        -0.2664194756       -6.1229679984       -8.5815463078
 H        -0.6086132389       -5.2104566989       -7.2820413095
 H         2.1077707596       -4.7746077318       -8.5116244982
 H         1.7800872257       -6.2545564524       -7.6076393876
 H         3.2838923808       -2.0628102715       -3.7119601364
 H         1.5147356179       -2.1664720305       -4.2692085822
 H         3.5839670162        0.0035202421       -4.8158459453
 H         2.3365036856        0.3126940970       -3.6946478013
 H         1.0718455586        4.4418225594       -6.8422842781
 H         1.7681077211        3.7318939865       -5.4059645868
 H        -1.2498155236        3.9050298369       -5.9148113494
 H        -0.4099309833        4.8082191769       -4.7836748101
 H        -3.4400289435       -0.0314603801       -3.5344484071
 H        -1.8054384401       -0.1086666015       -4.2774745342
 H        -3.0533651212        0.0927599319       -6.5286470453
 H        -4.4928591706       -0.4549198449       -5.5275451882
 H        -0.7306091826       -3.4733839097       -3.3938747026
 H        -1.7317378785       -4.8577845273       -4.0061657932
 H        -1.9984409407       -5.5682646189       -1.4786579069
 H        -1.6665410358       -3.8708258940       -1.0805240746
 H         0.1042867039       -7.8028784466        2.1826502129
 H        -0.0223889047       -8.8230009445        0.8525249194
 H        -2.5823020337       -8.4869633482        1.0319914693
 H        -2.1972449740       -7.9727016638        2.8247644976
 H        -6.0410094228      -11.1244404864        2.2272776684
 H        -6.1107054557       -9.7652840380        1.0818981640
 H        -5.6798615706       -9.5672552697        2.8185008088
 H        -3.4564978439      -12.9967071155        2.7272838962
 H        -1.9054209064      -12.6844363103        3.2968495451
 H        -2.2892089860      -12.4797373340        1.5255929969
 H        -4.4182630143      -10.5481564185        4.3185310463
 H        -3.3019807016       -9.2166520316        4.2185745145
 H        -2.7669196609      -10.8822710512        4.8758994254
 H        -0.1261547122       -8.7504436622       -1.1762576541
 H         0.0432488723       -7.7144676046       -2.8219528007
 H        -1.2776866986       -7.7586678699       -1.6480458760
 H         2.3843633824       -6.8880293899       -1.2776784419
 H         1.8431966246       -7.4658017088        0.3067824837
 H         2.0068768856       -5.7801027141        0.0589246045
 H        -4.8609458339       -1.3569193326       -3.1697223184
 H        -5.3346147246       -2.9560669417       -2.9712908309
 H        -5.9078541107       -2.1223251680       -4.4384077787
 H        -4.6838549070       -4.6836749387       -4.5353634062
 H        -3.2119098606       -4.7730688947       -5.3665354010
 H        -4.4507894990       -3.8462987036       -6.2599689345
 H        -2.3983730243        0.9502258959       -1.8284714517
 H        -1.0644179568        1.9400724769       -1.2401789124
 H        -0.7149623794        0.8226098942       -2.5257655340
 H        -2.9127081639        4.4634799275       -3.5186731913
 H        -1.6730565504        4.5352545000       -2.3583865426
 H        -2.9557021338        3.5974513463       -1.9987221903
 H         3.6352585579        2.9855181894       -6.8990168406
 H         4.2664585820        1.4517228480       -6.7834729829
 H         3.4510730381        2.1646418034       -5.3520552722
 H         1.1637359923        0.8125836975       -8.6807167476
 H         2.5838206428       -0.1864041634       -8.1375518541
 H         2.8185496490        1.2758310457       -8.9226648814
 H         3.8233127887       -5.8347506077       -4.5362456333
 H         2.3454543217       -4.9188359352       -4.0620545279
 H         4.0480769972       -4.3549275262       -3.8684448698
 H         3.8849651288       -4.4233214151       -7.8271794633
 H         4.4612031282       -5.5700332266       -6.6492225706
 H         5.1011713975       -3.8437698354       -6.6796861182
 H        -2.6240528145       -5.9585876053       -9.9589069713
 H        -3.6304916665       -4.6178226643      -10.2701776831
 H        -3.0786003666       -4.8785496197       -8.6008787513
 H        -0.5746328590       -5.3651380391      -11.1297316053
 H         0.0364336912       -3.7585493205      -11.3891332580
 H        -1.5700451575       -4.2222293479      -12.1408391113
 H        -3.9914065590        2.8053925910       -8.7859863812
 H        -4.6422216450        1.3736695059       -7.9954722578
 H        -5.6327694877        2.3756119892       -8.9527514109
 H        -5.8407816344       -0.1934895881       -8.8931398279
 H        -4.9709693505       -1.1345567090      -10.0298360670
 H        -6.3423569028       -0.1354978138      -10.5531266901
 H        -1.6011841006        0.6186103294      -15.5331842215
 H        -1.5526920648        0.7188864417      -17.1496372798
 H        -2.1213821476       -0.7189572090      -16.4506544481
 H        -2.6674774553        3.1948412962      -16.2608755776
 H        -4.4897178942        3.1626694784      -16.5696222078
 H        -3.2115844715        2.6457560228      -17.7050953500
 H        -8.3101162107       -3.1347346835      -17.4315871543
 H        -9.8238874962       -3.3518915666      -18.3977776873
 H        -9.6618105868       -2.0622360684      -17.1688464500
 H        -8.4139478252       -3.3146702492      -20.6679148839
 H        -8.2444225232       -1.5856797504      -21.1944089402
 H        -9.8497416372       -1.9872410979      -20.7300313333
 H       -11.5391915304        3.6418678225      -21.1299422573
 H       -12.9528798025        2.9075758951      -20.2266312259
 H       -13.1514934271        3.6609631490      -21.8590418936
 H       -12.8594681967        1.7862528829      -24.0803781445
 H       -14.0614768258        1.2645879924      -22.7951452483
 H       -12.8742876283        0.1527594585      -23.2853888168
 H        -6.5855742643        2.6299413734      -25.7343230092
 H        -5.3685170097        3.6483726035      -25.1560596201
 H        -6.9299245666        3.9702007132      -24.5660047757
 H        -5.1040755026        0.2405901254      -23.2910775049
 H        -4.5224934077        1.1667626208      -24.7647625932
 H        -5.9531057894        0.2194896234      -24.8421436645
 Na       -6.1774501392        0.7798883001      -20.1778686636
 Na       -0.7942572678       -0.7239089742       -7.4180553927
