232

 C        -4.6249254570        4.2188178111      -22.4119493309
 C        -5.2303904474        2.7945261872      -22.3646904199
 O        -5.0430517294        2.1398251535      -21.3576745842
 C        -5.9935795484        2.0981485889      -23.6455498420
 C        -7.4070169386        1.6478214378      -23.1424142844
 O        -7.5850079512        1.1930092829      -22.0508969618
 C        -8.5298963645        1.5780688156      -24.1956895278
 C        -9.8393878813        1.1036826808      -23.5957801447
 C       -10.5796797557        2.1492773329      -22.6463740953
 O       -10.0592575218        3.1674973184      -22.2987136026
 C       -11.9722293782        1.6861875023      -22.0344047259
 C       -11.5915191761        0.5420431888      -21.0698984884
 O       -11.2311909046       -0.5705330676      -21.4373888124
 C       -11.6299729698        0.8791945559      -19.5777839951
 C       -10.8248281306       -0.2110661316      -18.7562308339
 C        -9.2463518438       -0.3312592684      -18.9543196959
 O        -8.6101851705        0.6838713382      -18.9016061131
 C        -8.5670082956       -1.7456524265      -18.9669919884
 C        -7.0226151331       -1.5930181154      -18.8442796121
 O        -6.2954395996       -1.6003402098      -19.8170310837
 C        -6.5339418551       -1.3641819087      -17.4532418283
 C        -5.0396003489       -1.1259553744      -17.4093783881
 C        -4.6694764076        0.3975182899      -17.3817730258
 O        -5.2865087748        1.1544363058      -18.1592138656
 C        -3.6534474450        0.9702424683      -16.3750628081
 C        -3.9938425583        0.6260796909      -14.7717887057
 O        -3.4417370856       -0.2894664939      -14.2053894024
 C        -4.9273785382        1.6634390000      -14.0408398344
 C        -5.4569312913        1.0933310098      -12.6503260855
 C        -4.5738827219        1.7989714901      -11.5569536778
 O        -4.1441519281        2.9053700692      -11.7521880472
 C        -4.4811469079        1.1206931165      -10.1968491661
 C        -3.0856555176        0.5396557614       -9.9933626333
 O        -2.6875473627        0.5264881272       -8.8499659442
 C        -2.4434155579       -0.2152301918      -11.2695122200
 C        -1.6216514222       -1.4686335525      -10.9248898419
 C        -2.2450921089       -2.5330472812       -9.9222110168
 O        -3.1548156649       -2.1943833212       -9.2313178934
 C        -1.5285729380       -3.9223041197       -9.7266261892
 C        -0.2820697175       -3.9186754181       -8.7570580729
 O         0.2108805450       -2.8894460506       -8.3692654040
 C         0.2116962008       -5.2670907375       -8.3144075986
 C         1.6909224301       -5.0468217054       -7.8194371830
 C         1.7686965089       -4.4017296955       -6.5186838708
 O         0.7495449906       -4.0234457483       -5.9113937479
 C         3.1765270144       -4.0362322916       -5.8599817691
 C         3.0793874980       -2.4804777494       -5.7921980145
 O         3.4041749612       -1.7700082942       -6.7302140435
 C         2.6425552217       -1.8130995337       -4.4878499878
 C         2.4220720231       -0.2558884197       -4.5899678386
 C         1.6260788461        0.0539210094       -5.8860732681
 O         0.5860870919       -0.6355353888       -6.1369599243
 C         2.0395757664        1.2070473846       -6.8805595024
 C         0.8215057361        2.2939680426       -6.8349682386
 O        -0.3250105275        2.0217978557       -7.1191456883
 C         1.1679448167        3.7016751277       -6.1082750498
 C         0.0822705287        4.1026405288       -5.0205335941
 C        -0.2785308588        2.8563458018       -4.1819486760
 O         0.5536745062        1.9738394937       -4.0855691387
 C        -1.7274928769        2.7741972009       -3.4579580980
 C        -2.7076244160        2.0612592225       -4.4973209002
 O        -3.3368925872        2.6490383599       -5.3367839362
 C        -2.7133049974        0.5155849467       -4.3261067486
 C        -3.5768573253       -0.3339503938       -5.3457963184
 C        -3.0410624093       -1.7730142755       -5.3679179022
 O        -2.0027339103       -2.0858315423       -5.9383839277
 C        -3.7439057972       -2.8922711380       -4.4496110778
 C        -2.8649737934       -3.2480786618       -3.1764074648
 O        -3.1755029491       -2.6935456260       -2.1399915667
 C        -1.6953010939       -4.1830815936       -3.2070251656
 C        -1.4368067193       -4.8235786646       -1.9012857355
 C         0.0736045616       -5.3763602405       -1.7034582639
 O         1.0505875559       -4.8281676890       -2.1675895972
 C         0.3478088990       -6.7563028484       -0.8309408988
 C        -0.6914297402       -6.8160452248        0.4265872511
 O        -1.6148660111       -6.0355538280        0.4252446583
 C        -0.4296905568       -7.7620609722        1.6729606671
 C        -1.7048454633       -8.5117740799        2.1046289907
 C        -1.5545014718       -9.9994209543        2.2315146365
 O        -0.4920665703      -10.5705587317        1.9109598437
 C        -2.8097431439      -10.8408790441        2.5461756704
 C        -3.9649572247      -10.7344472850        1.4051639844
 O        -3.6135971301      -10.7234983370        0.2822942303
 C        -5.4240824144      -10.6436743111        1.7630671887
 C        -2.5144554910      -12.3016186488        2.9283445938
 C        -3.5094955192      -10.1546323498        3.8528359107
 C        -0.1017103040       -7.9595107032       -1.7324871038
 C         1.7413762182       -6.8840471079       -0.2624345622
 C        -5.1526914701       -2.4779783641       -4.0422461281
 C        -3.7064872810       -4.1834102444       -5.3351685255
 C        -1.4868141487        1.9514527190       -2.1154096042
 C        -2.2974233728        4.1229801920       -3.1359326794
 C         3.4549414956        1.7935464569       -6.6630117794
 C         1.8777551004        0.7431863653       -8.3098082254
 C         3.3806782393       -4.6541671519       -4.5176880472
 C         4.3034853144       -4.3782171912       -6.8370846599
 C        -2.5867733154       -4.9551621667       -9.1409816483
 C        -1.1728477414       -4.5492160590      -11.1425608839
 C        -4.7796811989        2.1878448508       -9.1407042734
 C        -5.5177070370        0.0253861828      -10.0048961374
 C        -2.2847806480        0.3086371720      -16.6486048188
 C        -3.5098380125        2.5049710881      -16.4575248574
 C        -9.1215811259       -2.6947121752      -17.9807111907
 C        -8.8715049221       -2.3931872685      -20.4712847887
 C       -12.8213529377        2.8202068623      -21.4417663617
 C       -12.8327582022        1.1090090984      -23.2307363353
 C        -6.2741510931        3.2307302604      -24.7005416515
 C        -5.1910206348        0.8178352066      -24.1385199683
 H        -4.9376454614        4.8781996012      -21.5629136307
 H        -4.7328824760        4.6840977446      -23.4047916227
 H        -3.5590547474        4.1838632126      -22.2283173301
 H        -8.0394194952        0.7949381160      -24.8859902341
 H        -8.5757669530        2.3712569662      -24.8564330619
 H        -9.6387528351        0.1985049675      -23.0346265097
 H       -10.4439658069        0.8943754493      -24.4401153966
 H       -12.7009830407        0.8837418831      -19.2223537270
 H       -11.1216824613        1.8360032412      -19.5779421815
 H       -11.3095731094       -1.1707975271      -18.9193500500
 H       -10.9560346343        0.0346510468      -17.6880411959
 H        -6.6922788620       -2.2849223912      -16.7874235888
 H        -6.9606788344       -0.4456457910      -17.0401376468
 H        -4.6115483882       -1.5020688386      -18.3131198671
 H        -4.4976592383       -1.5212049270      -16.5055068107
 H        -5.7976344972        1.8636836597      -14.6743401474
 H        -4.3907413979        2.6217199779      -13.8495570936
 H        -5.4628230078       -0.0042613585      -12.5904882799
 H        -6.4803907466        1.5231294716      -12.4902152691
 H        -1.8204106769        0.5393961330      -11.8030098677
 H        -3.3104373949       -0.4843023075      -11.9282965112
 H        -0.6699496876       -1.1958856398      -10.6157082622
 H        -1.3805516307       -1.9185417614      -11.8852330574
 H         0.3200866393       -6.1338880991       -9.1377145571
 H        -0.4390733596       -5.7084887421       -7.6049137600
 H         2.3446178246       -4.4512009279       -8.5236983220
 H         2.2155539308       -6.0136290166       -7.7496704829
 H         3.4203892915       -1.9157815047       -3.7233584116
 H         1.6441949484       -2.2079268687       -4.1846404603
 H         3.3771237697        0.2111433364       -4.6718691721
 H         2.0729394672        0.1208720386       -3.6112984316
 H         1.1661238307        4.5113162662       -6.8612215431
 H         2.0960210007        3.7354768862       -5.6161879353
 H        -0.8419593096        4.3884947768       -5.5558119981
 H         0.2434671109        4.9475062996       -4.3900702793
 H        -3.0992436302        0.2535765800       -3.3672595135
 H        -1.6368692880        0.1018000257       -4.3955031699
 H        -3.4960192675        0.0888461072       -6.2971220813
 H        -4.6355165791       -0.3431277732       -5.0806342454
 H        -0.9730309406       -3.4017813659       -3.4342475114
 H        -1.6662008682       -4.9634483296       -3.9620556270
 H        -2.1009224887       -5.6526701853       -1.7763563415
 H        -1.6492480465       -4.1730351716       -1.0281904817
 H         0.0317405378       -7.2978850328        2.5733546502
 H         0.2632938049       -8.6178078134        1.3348865065
 H        -2.6117063827       -8.3455380322        1.5114984353
 H        -1.9497687303       -8.2335135758        3.1480325641
 H        -5.7185486122      -11.4333016829        2.4270862626
 H        -6.0348151828      -10.6589651213        0.8655727099
 H        -5.6579503507       -9.7370210300        2.2881693510
 H        -3.4230690321      -12.8589105373        3.2067881967
 H        -1.7499384864      -12.4392365462        3.6845082834
 H        -2.2304096716      -12.8163114599        2.0463400258
 H        -4.1418136976      -10.8229672325        4.4123852276
 H        -4.0919606687       -9.2913777803        3.4834180696
 H        -2.7033750243       -9.8218605074        4.4740346328
 H        -0.3221405419       -8.8985971780       -1.2955631971
 H         0.6699859831       -7.9055645521       -2.5572983688
 H        -0.9256171847       -7.5164388649       -2.2674684672
 H         2.3959981809       -6.1917700054       -0.7597714658
 H         2.1667315240       -7.8943374658       -0.5261676531
 H         1.7713843276       -6.6504544308        0.8117869548
 H        -4.9590145400       -1.6870140682       -3.3403606556
 H        -5.6567401835       -3.2292649165       -3.4828636729
 H        -5.7263535123       -2.1023142202       -4.9494876148
 H        -3.6680151644       -5.0303462340       -4.6725360076
 H        -2.7994893322       -4.2107279729       -5.9235949748
 H        -4.6491926525       -4.1700856275       -5.8900162185
 H        -2.3381686019        1.9145145201       -1.4506314047
 H        -0.6133107105        2.3623466207       -1.6145231864
 H        -1.3085043999        0.8909931280       -2.4186835253
 H        -2.3416735570        4.8709173022       -4.0094066181
 H        -1.8484236615        4.7707749380       -2.4213662283
 H        -3.3310689530        3.9807572459       -2.8099902374
 H         3.6359563547        2.5443903255       -7.4278522367
 H         4.2734031867        0.9735147082       -6.6245632572
 H         3.3797907046        2.2728310726       -5.6535952840
 H         1.1062166947       -0.0985088111       -8.3393857105
 H         2.7925317925        0.2855954627       -8.6642895418
 H         1.6685140514        1.5580004400       -9.0571017054
 H         3.2387144620       -5.7149224518       -4.5644599051
 H         2.7864396544       -4.1176431062       -3.7705311080
 H         4.4624404210       -4.6455223114       -4.2860557888
 H         4.5254930109       -3.5110820175       -7.4457752399
 H         4.1042601211       -5.1496259763       -7.5498614374
 H         5.1626441132       -4.7027364240       -6.2239398083
 H        -2.0706432747       -5.8965058534       -8.8155726362
 H        -3.2542906371       -5.3461708178       -9.8833337544
 H        -3.1382996585       -4.5559544004       -8.3217988094
 H        -0.7552529143       -5.4991486204      -10.9593607075
 H        -0.2766755993       -3.9298533848      -11.5071445349
 H        -2.0467043887       -4.5609485807      -11.7058023387
 H        -4.1606033041        3.0696648972       -9.2863696280
 H        -4.4365545955        1.8437920241       -8.1368870805
 H        -5.7654232477        2.6370755965       -9.0934465380
 H        -5.3356934182       -0.5932416791       -9.1754559392
 H        -5.6298669889       -0.6618210028      -10.7615195183
 H        -6.5065855671        0.4332593274       -9.7738791677
 H        -1.5475114937        0.5922637185      -15.9868033956
 H        -1.7478049718        0.5176293143      -17.5525823045
 H        -2.2915067036       -0.7888328706      -16.5492944359
 H        -2.8278276891        2.8454516395      -15.5940662962
 H        -4.4638346644        3.0051522109      -16.5140433555
 H        -3.0433594638        2.8036166214      -17.3539157601
 H        -9.0853226357       -3.7429863591      -18.2084631967
 H       -10.1515290215       -2.5198165494      -17.9085100992
 H        -8.5884346338       -2.5242531205      -17.0149372625
 H        -8.1739416004       -3.3081016982      -20.5681519489
 H        -8.6250347785       -1.7148083909      -21.2365967658
 H        -9.9503292770       -2.6082182806      -20.4662088941
 H       -12.5931833398        2.9962143447      -20.4464314120
 H       -13.8743892382        2.5907708450      -21.4150077887
 H       -12.7404935592        3.7437229956      -22.0724448434
 H       -13.2385235822        2.0236508100      -23.7303691634
 H       -13.6150794394        0.4623857636      -22.9069102315
 H       -12.2277813430        0.4753299757      -23.8511520710
 H        -6.6226655493        2.6646102437      -25.5917273427
 H        -5.4325115257        3.8389670917      -25.0732235462
 H        -7.0794580936        3.8983945489      -24.3850227316
 H        -5.2762402579        0.0458184779      -23.3284764776
 H        -4.1399959833        0.9677013249      -24.2718658070
 H        -5.6142267528        0.3461230119      -25.0630678264
 Na       -6.3007080386        0.8304666453      -20.1468790509
 Na       -1.0553110863       -0.8784978511       -7.8896689330
