232

 C        -4.6278936323        4.1867168189      -22.4174185121
 C        -5.2070251480        2.8465393420      -22.3722369381
 O        -5.1678847804        2.1770034705      -21.3767625630
 C        -5.9506428522        2.1528455380      -23.5519105887
 C        -7.3391411135        1.5765172097      -23.0818859490
 O        -7.7015291549        1.3051393090      -21.9284383113
 C        -8.5205679493        1.5480060752      -24.1159735344
 C        -9.8059774858        1.0431809102      -23.4728174782
 C       -10.5529823272        2.0746371495      -22.5837140041
 O       -10.1898581765        3.1929575311      -22.3125229181
 C       -11.9681743670        1.6423015294      -22.0439739126
 C       -11.6071626699        0.6489681237      -20.9592456950
 O       -11.2164569019       -0.4530680602      -21.4002255413
 C       -11.5990623444        0.9200426675      -19.4042186335
 C       -10.9708169282       -0.2786614139      -18.6819034883
 C        -9.4867356031       -0.3209757722      -18.8871945316
 O        -8.7255338738        0.6000795207      -18.8433080315
 C        -8.7128338172       -1.8252166206      -19.0312884651
 C        -7.0584834471       -1.5393450655      -18.8611854736
 O        -6.2681112041       -1.5855480434      -19.7786321639
 C        -6.4785340097       -1.3718817565      -17.4055282487
 C        -4.9959273558       -1.0078019885      -17.2739521441
 C        -4.7156867646        0.5487259910      -17.3103160730
 O        -5.1995923091        1.2649210750      -18.1608640397
 C        -3.6972811511        0.9837630289      -16.2425995600
 C        -3.8981730188        0.5898834452      -14.8020323365
 O        -3.3548295051       -0.3597617378      -14.2738711270
 C        -4.8069518424        1.5680020773      -14.1268675565
 C        -5.4931122530        1.2452642735      -12.7448503437
 C        -4.6212750574        1.8762386166      -11.6461445783
 O        -3.8518863005        2.7804635660      -11.9120969252
 C        -4.5573066378        1.2304868924      -10.2107976443
 C        -3.1605156567        0.4555317129       -9.9464645769
 O        -2.6733302997        0.3769592818       -8.8658794237
 C        -2.4332976270       -0.2538436436      -11.0994483427
 C        -1.5326441011       -1.4991677740      -10.8333575065
 C        -2.2088991516       -2.4942436766       -9.8274124601
 O        -3.2725082818       -2.2853578006       -9.2724295179
 C        -1.5649058342       -3.9229691795       -9.6528655380
 C        -0.3023411951       -3.9346868211       -8.7697363709
 O         0.0727215262       -2.8217471475       -8.3365365850
 C         0.3276901254       -5.2469324323       -8.4214751646
 C         1.8724048755       -5.1579577517       -7.9354170327
 C         1.7642416207       -4.3551692233       -6.5105420250
 O         0.7284723733       -4.1644237001       -5.9498115937
 C         3.2251922388       -3.9282902049       -5.8511785418
 C         3.2083073283       -2.3502268497       -5.7829400287
 O         3.4809506290       -1.6968217267       -6.7819292856
 C         2.7545955957       -1.7077289222       -4.4352410180
 C         2.2352344914       -0.2617154434       -4.6404451327
 C         1.5615142284        0.0001849353       -5.9928001220
 O         0.6103593877       -0.6787384975       -6.2243577659
 C         1.9428072149        1.2024866590       -6.9106166955
 C         0.8376977876        2.2514022376       -6.6914941044
 O        -0.2354013129        1.9670048033       -7.1118801423
 C         1.1261207065        3.6661104259       -6.2053857837
 C         0.1029663343        4.0686440041       -5.1711346763
 C        -0.2811946881        2.9559591426       -4.1432746085
 O         0.4158707172        1.9353203961       -4.0530557609
 C        -1.6707046247        2.9018911258       -3.4813268621
 C        -2.5474933311        2.0002410856       -4.4606001410
 O        -3.2229671111        2.6514370622       -5.2283921451
 C        -2.5925261262        0.5230897288       -4.2874874849
 C        -3.4368223400       -0.2821379373       -5.2557416345
 C        -3.0246818465       -1.7435376308       -5.2932692737
 O        -2.0480297886       -2.0006379231       -6.0110826057
 C        -3.6862134090       -2.9728307879       -4.5118413562
 C        -2.8180088043       -3.1708005317       -3.1841593793
 O        -3.3614926459       -2.8214754997       -2.1814996651
 C        -1.4623293448       -4.0960035996       -3.2803946375
 C        -1.2890701877       -4.8996407638       -1.9555990489
 C         0.0995633005       -5.4323583795       -1.6877740216
 O         1.0303135945       -4.7948373235       -2.2114652668
 C         0.2907428332       -6.6909599481       -0.8490492756
 C        -0.7747297541       -6.8671919246        0.4089192298
 O        -1.7515937287       -6.2072627374        0.5001170591
 C        -0.4354837655       -7.7708815350        1.5570191415
 C        -1.6627105897       -8.4681843758        2.1575153314
 C        -1.5867693918      -10.0569576775        2.0802971883
 O        -0.5341449665      -10.6023425765        1.8499871173
 C        -2.8551706291      -10.8281007830        2.5569659081
 C        -3.8911090280      -10.8122152045        1.3599587548
 O        -3.4941352865      -10.7079309879        0.2138310673
 C        -5.3585949354      -10.8474365093        1.7243720276
 C        -2.4154720515      -12.2820953617        2.9438327701
 C        -3.4849260564       -9.9956004647        3.7462155181
 C        -0.1604537766       -8.0201562269       -1.6254581045
 C         1.7049778266       -6.7752403574       -0.3200522459
 C        -5.1159323596       -2.6712380701       -4.0378057185
 C        -3.7887325942       -4.2747510376       -5.4979892778
 C        -1.6161097765        2.2002294468       -2.0120288276
 C        -2.3500575211        4.2381041967       -3.2710904984
 C         3.3594371979        1.6932720741       -6.7140721897
 C         1.8919836623        0.6862259507       -8.5146363107
 C         3.3571634351       -4.6372961622       -4.4905602566
 C         4.4406883328       -4.3723604040       -6.8184831392
 C        -2.6390186677       -4.8265454044       -8.9414272790
 C        -1.1844101850       -4.4839918891      -11.1595395944
 C        -4.7090805954        2.2944711912       -9.1347360989
 C        -5.5904062059        0.0295807431       -9.9914309053
 C        -2.4190418139        0.1742402055      -16.6625537641
 C        -3.4940543775        2.5355227874      -16.5045483057
 C        -9.1654960184       -2.7653248028      -17.8873407401
 C        -8.8584399268       -2.4159709494      -20.4833029484
 C       -12.7502581252        2.8733337341      -21.6274464129
 C       -12.7976402136        0.8656139414      -23.1734272995
 C        -6.1578992148        3.1190298610      -24.7677864886
 C        -5.0310779824        1.0715669558      -24.0325631106
 H        -5.0578837628        4.6728564952      -21.6120414550
 H        -4.6065534561        4.7671909521      -23.3539943478
 H        -3.6216271012        4.1773811678      -22.0733146232
 H        -8.2304678848        1.0278347199      -25.0644966205
 H        -8.5904394631        2.5946053469      -24.5305566995
 H        -9.6458717123        0.1063969816      -22.9441647669
 H       -10.4771256171        0.8800357057      -24.3073575027
 H       -12.6459891622        1.0134547995      -19.0452070758
 H       -10.9517224259        1.8157347238      -19.2650564391
 H       -11.3831277985       -1.2476894311      -19.0072085914
 H       -11.2033407635       -0.1197907077      -17.6295249255
 H        -6.5456583019       -2.3654762010      -16.9607236172
 H        -6.8961372344       -0.5652915799      -16.7857980405
 H        -4.3711029413       -1.3112369070      -18.1902681621
 H        -4.5233354691       -1.3514603156      -16.3990352009
 H        -5.5661456355        1.9356721564      -14.8923430207
 H        -4.1412787875        2.3916437308      -13.9382928055
 H        -5.4811539129        0.1641862343      -12.5238101772
 H        -6.4933142441        1.6606896457      -12.6809518061
 H        -1.7928112250        0.6246756675      -11.4332357548
 H        -3.1662202081       -0.4359621700      -11.9228302150
 H        -0.5251057458       -1.2612823994      -10.6557958940
 H        -1.4282417135       -1.9935542190      -11.7719139259
 H         0.1940160105       -5.9262359696       -9.2286439275
 H        -0.2310130908       -5.6912745378       -7.6631957052
 H         2.5983066020       -4.6254734189       -8.5799742301
 H         2.3467681218       -6.1689054612       -7.7433882912
 H         3.4733273156       -1.6655179037       -3.5981310156
 H         1.8063622159       -2.2882635245       -4.2423295746
 H         3.0552751846        0.3956529435       -4.4116969140
 H         1.5618698871       -0.0487072522       -3.7980474364
 H         1.0215361879        4.3456311496       -7.0252579879
 H         2.0589275089        3.8630820165       -5.7793463550
 H        -0.8489607194        4.4502063115       -5.6018683869
 H         0.4660916112        4.8905042738       -4.6517583337
 H        -2.8995313240        0.2177007147       -3.2562190528
 H        -1.5488189159        0.1624138466       -4.4231804762
 H        -3.2454171311        0.1188233605       -6.2532693152
 H        -4.4860885887       -0.1728081579       -5.1271857561
 H        -0.6013168171       -3.4559121872       -3.5516955401
 H        -1.5718068583       -4.8587346238       -4.0732015087
 H        -1.9629436957       -5.7306028654       -1.9095346017
 H        -1.5283983130       -4.3315116114       -1.0155298494
 H        -0.0190233442       -7.1874868977        2.4134362023
 H         0.3358253600       -8.5405377267        1.3082637293
 H        -2.6862304789       -8.2598016096        1.6691358756
 H        -1.7584390304       -8.1859311696        3.2185321248
 H        -5.5026490443      -11.3634185518        2.6377895514
 H        -6.0453803006      -11.2466252395        0.9396523682
 H        -5.6728605077       -9.8208648298        1.9285729976
 H        -3.0795993112      -13.0912585800        3.0814366783
 H        -1.5984423655      -12.2881400854        3.6671674639
 H        -1.9439868900      -12.5188142611        1.9777995125
 H        -4.3968550303      -10.5074925574        4.0456805154
 H        -3.6940982280       -8.9829657027        3.3990712650
 H        -2.7722370629       -9.9685563206        4.5194522820
 H        -0.1380610799       -8.9350390154       -0.9725483212
 H         0.5932744315       -8.0659344282       -2.4084969066
 H        -1.0604277296       -7.8131932218       -2.1117998321
 H         2.3667684519       -6.1598444758       -0.9160208040
 H         2.0616135465       -7.7696922840       -0.5218477876
 H         1.8020748232       -6.4451134303        0.6846725209
 H        -5.0538455778       -1.8393778163       -3.3107211908
 H        -5.4124665583       -3.5585140779       -3.4450243590
 H        -5.8013053201       -2.4802192649       -4.8588532700
 H        -3.6651886583       -5.1729261990       -4.8342507445
 H        -3.0004450165       -4.2688244685       -6.2167627962
 H        -4.8690000099       -4.3012977870       -5.8602819042
 H        -2.6153477451        2.0681475761       -1.6055274941
 H        -0.9525594991        2.7292882244       -1.3154480573
 H        -1.3402290786        1.1742675203       -2.1673978860
 H        -2.7115620619        4.8254621399       -4.1178272096
 H        -1.8592979493        5.1060550747       -2.7316303051
 H        -3.2115846260        3.9664043980       -2.6990118841
 H         3.5725986316        2.5213127345       -7.4393100537
 H         3.9878168323        0.8468091059       -6.7973796824
 H         3.4210697371        2.0475018461       -5.6791144091
 H         1.1467167967       -0.1053036535       -8.5879622105
 H         2.7830543145        0.0974655339       -8.5930539515
 H         1.9170586322        1.4049021890       -9.3164569956
 H         3.3183826548       -5.7514405880       -4.5611856342
 H         2.6332365323       -4.1891878454       -3.9007633186
 H         4.3526988204       -4.4353963342       -4.0481416904
 H         4.6454906550       -3.7828058371       -7.6375266774
 H         4.1462717476       -5.4114852720       -7.2772969716
 H         5.2493484008       -4.5790780933       -6.2197684761
 H        -2.2791245713       -5.7533261551       -8.5496996474
 H        -3.3299704453       -5.1445175225       -9.7441522321
 H        -3.2007192698       -4.3111558495       -8.2467369467
 H        -0.7097096757       -5.4390234716      -11.0704207589
 H        -0.4288454897       -3.8025676230      -11.5036432346
 H        -2.0794464327       -4.5900789875      -11.6928212114
 H        -4.2336924278        3.3165194643       -9.3557496363
 H        -4.3246002327        2.0379977153       -8.1723251869
 H        -5.7229654355        2.6259972563       -9.0296925716
 H        -5.3827024945       -0.6662206526       -9.2369877594
 H        -5.7758418063       -0.6454071913      -10.8377155894
 H        -6.5497019875        0.3483138634       -9.7042554459
 H        -1.5056850029        0.6142756734      -16.3384705644
 H        -2.1979735281        0.1974901514      -17.6843003267
 H        -2.3417125100       -0.8825374478      -16.3348427090
 H        -2.8803498719        3.1036688478      -15.8336787822
 H        -4.5044479131        3.0013766899      -16.7195487758
 H        -3.1162604844        2.5636264574      -17.5759789275
 H        -8.9615917927       -3.8982667811      -18.0280978112
 H       -10.2236461127       -2.7954561287      -17.7848546707
 H        -8.6901310726       -2.4240475357      -17.0232605605
 H        -8.3271784982       -3.3962380619      -20.5473234821
 H        -8.4161075778       -1.7537808907      -21.2165180236
 H       -10.0200916831       -2.4647798449      -20.5621172708
 H       -12.6484634419        3.0638399986      -20.5384895604
 H       -13.8734493086        2.7988553900      -21.6911942833
 H       -12.4669029805        3.7218628624      -22.2624440471
 H       -13.1079316409        1.5516184766      -23.9177777725
 H       -13.7000819011        0.5786294573      -22.6980972861
 H       -12.3099363522       -0.1018726083      -23.4678176667
 H        -6.2828758736        2.4684730911      -25.6484980863
 H        -5.2901902603        3.6736013528      -25.0034220986
 H        -7.0576755324        3.8560179904      -24.7157216653
 H        -5.0226099606        0.2696997050      -23.2665118256
 H        -4.0028288845        1.4531555990      -23.8723662445
 H        -5.1421085135        0.6593460458      -24.9851249220
 Na       -6.5128357704        0.7323709096      -20.1849268931
 Na       -1.1427054080       -0.7321882462       -7.7692679344
