232

 C       -20.7669263620       -5.2967359035       -5.8951318729
 C       -20.5748408262       -5.9326597068       -4.4807073212
 O       -19.7852055680       -6.8199931597       -4.3143738644
 C       -21.3964004680       -5.3698110153       -3.2189492619
 C       -20.4217868641       -4.9371778757       -1.9996224682
 O       -19.8298054859       -5.7606445308       -1.3775021110
 C       -20.3213331723       -3.5193347369       -1.6510060666
 C       -18.8642861814       -3.2928194813       -1.1813699087
 C       -17.7705842484       -3.5956224260       -2.1385287789
 O       -18.0093596258       -4.2019634244       -3.1786035028
 C       -16.3093759727       -3.4647196727       -1.6588562368
 C       -16.0773445727       -4.9189310821       -0.9819174190
 O       -17.0015394121       -5.4482712197       -0.3982751036
 C       -14.6874919052       -5.5774847401       -0.9648791798
 C       -14.6553583725       -7.1063299147       -0.8205811888
 C       -15.1197275261       -7.8428682790       -2.0885110767
 O       -16.0723864459       -7.4538652469       -2.7189702703
 C       -14.3424001168       -9.1048895524       -2.4497205652
 C       -12.8683954583       -8.7181965792       -2.9491190897
 O       -12.6715622376       -7.6073803051       -3.4099801352
 C       -11.6885709070       -9.7161257151       -2.7955389017
 C       -10.4022399403       -9.1847968303       -3.5573307196
 C        -9.0975568856       -9.9029276106       -3.2256077131
 O        -8.9896719381      -10.5245960113       -2.2078494237
 C        -7.8077586546       -9.6835669924       -4.1692875154
 C        -7.6917771850       -8.3979159105       -4.9914352624
 O        -8.2500700252       -7.3667885214       -4.7207189012
 C        -6.5871513919       -8.4127867859       -6.2233979287
 C        -6.1573434551       -7.0786403180       -6.6136126539
 C        -7.2836782345       -6.3057152625       -7.3431438854
 O        -8.3259826668       -6.8857617167       -7.5211414588
 C        -6.9666364112       -4.7936566953       -7.6887268160
 C        -5.7044368056       -4.5504491683       -8.5801174255
 O        -4.7535254576       -3.8988107379       -8.2207308591
 C        -5.5823415871       -5.1995700641       -9.9536056589
 C        -5.4014234998       -4.1257751972      -11.0189545813
 C        -5.6874568667       -4.4932389251      -12.5369466303
 O        -6.3485578494       -5.4340745187      -12.8343651339
 C        -5.0283030891       -3.6289953147      -13.7677588731
 C        -4.1763600600       -2.4582565996      -13.2120779586
 O        -4.6644507374       -1.7690920992      -12.3402763363
 C        -2.7533049232       -2.1221414036      -13.6704433438
 C        -1.7191647434       -2.4838356662      -12.6317309159
 C        -0.3269340566       -1.8486491655      -12.9855832966
 O        -0.2840885251       -1.0572402943      -13.8821132810
 C         0.9887500351       -2.3072000896      -12.0672237111
 C         2.0613872584       -1.1525246149      -12.2510460985
 O         3.1086794005       -1.4090774160      -12.8482175083
 C         1.8542515939        0.2021837775      -11.6168423466
 C         3.2645307228        0.6684045131      -11.1864110519
 C         3.0232612212        1.9237819204      -10.2800887860
 O         1.9493976922        2.4275297133       -9.9769569445
 C         4.3074993165        2.7296491752       -9.8951091567
 C         4.6556112463        3.4985993404      -11.3345414985
 O         5.4736239015        3.1335199980      -12.1602628364
 C         3.7729838181        4.6732958810      -11.6527179224
 C         4.4620246862        6.0560082144      -11.4812266846
 C         5.5574574205        6.3712129530      -12.4649220397
 O         5.7375378173        5.7323076440      -13.4998168351
 C         6.5566045613        7.4484486040      -12.0831328423
 C         7.5385321311        7.5660359948      -13.3641197497
 O         7.4851442332        8.6128496868      -13.9933509479
 C         8.6367975930        6.5724081895      -13.8625027179
 C         9.0558004051        6.8765088782      -15.2249113344
 C         8.2315576072        6.2094521231      -16.3468546422
 O         7.2728836686        5.4512803266      -16.0441485263
 C         8.6275360837        6.6027319285      -17.7598724706
 C         9.0627109845        5.4517153499      -18.6363989434
 O         9.8199626890        4.6027186737      -18.2078973911
 C         8.4359294830        5.2504844585      -19.9907137541
 C         9.0164925749        4.0396633877      -20.7373228457
 C         8.0330547688        2.8593067211      -21.0353678803
 O         6.8994065554        3.1137107305      -21.3193646555
 C         8.5711952696        1.3938626247      -20.8905231212
 C         9.1273585122        1.2610095980      -19.3856592429
 O        10.2720367742        1.5126916099      -19.0375136823
 C         8.0272064410        1.1242431140      -18.1993054310
 C         8.6144805891        0.6220618111      -16.8971243063
 C         7.4379081434        1.0710311678      -15.8683882908
 O         7.5984082034        2.0733686922      -15.2348777947
 C         6.0586415167        0.3515949451      -15.6903738579
 C         5.0488675503        1.3208304683      -16.4838463757
 O         4.8913963730        2.4334627121      -16.0364761233
 C         4.2879808498        0.7071956830      -17.6074227361
 C         5.9922497692       -1.1405190743      -16.1347001926
 C         5.7212178755        0.4543731780      -14.0871610141
 C         7.3594033435        0.3423656947      -21.2049184988
 C         9.7085960807        1.2262743015      -21.8644668820
 C         7.3901622531        7.5091821291      -18.3214350504
 C         9.8966225656        7.6277938685      -17.8837837531
 C         5.9047031341        8.8439673077      -11.8425105818
 C         7.3734999215        6.8439816223      -10.8425696661
 C         4.1072271958        3.9154157249       -8.8143187823
 C         5.4185079579        1.8209745197       -9.4700172286
 C         0.7291142385       -2.6446780893      -10.5483994279
 C         1.6065512527       -3.6174193629      -12.6514785513
 C        -4.3059561894       -4.6427025343      -14.7336084797
 C        -6.2346507913       -2.8530529893      -14.5685897817
 C        -8.1387969660       -4.1152521987       -8.3122797448
 C        -6.6172014832       -4.0658773113       -6.2826063873
 C        -6.5985211123       -9.6529617815       -3.1799935868
 C        -7.7330938446      -10.9288805792       -5.0875225116
 C       -14.3744955105       -9.8929392019       -1.1838316653
 C       -15.0222844234       -9.8358954269       -3.6364560465
 C       -15.3681865406       -3.3375563101       -2.8000545757
 C       -16.1636790330       -2.3723284241       -0.6232988127
 C       -22.3638549392       -4.2672879368       -3.6521582274
 C       -22.2576860148       -6.4814920246       -2.5881986534
 H       -19.8636476646       -4.6640002643       -5.9775820885
 H       -21.6962095646       -4.8272509336       -5.8869093337
 H       -20.9106681382       -5.9311091775       -6.7879369697
 H       -20.9190964639       -3.1934568255       -0.7801638793
 H       -20.6121793969       -2.9254827756       -2.5058837009
 H       -18.6676377880       -3.8202872378       -0.2408188521
 H       -18.8699234891       -2.2554335497       -0.8606097022
 H       -14.0835635437       -5.1756446794       -0.1662003661
 H       -14.1132788980       -5.2819300526       -1.8773821343
 H       -15.2223450947       -7.3318356745        0.1132869839
 H       -13.5063180002       -7.2555104564       -0.6484775834
 H       -12.0723833994      -10.7121049938       -2.9047117301
 H       -11.3894076790       -9.5854414570       -1.7623285651
 H       -10.1588166170       -8.1541065877       -3.4422336838
 H       -10.5230909627       -9.2676254895       -4.6105439625
 H        -7.0597996773       -8.9079043334       -7.0082465907
 H        -5.7412569045       -9.0454621948       -5.9693993677
 H        -5.3408873990       -7.0508561787       -7.3453242483
 H        -5.9094234434       -6.4524009529       -5.7809771596
 H        -6.4503639885       -5.9129823677      -10.1017152951
 H        -4.7178183924       -5.8281040443      -10.0326390001
 H        -4.3669451537       -3.7614863199      -10.9433632191
 H        -6.0098513858       -3.1451602400      -10.9611937443
 H        -2.7524173617       -1.0261584023      -13.8137369140
 H        -2.4313317009       -2.4632764227      -14.6426578792
 H        -1.7593328897       -3.6534962827      -12.5176974384
 H        -1.9612651806       -1.9852068000      -11.7188347106
 H         1.2812129658        0.1795822411      -10.6680274654
 H         1.2357793449        0.9045074604      -12.2039830679
 H         3.9683435083        1.0127106541      -11.8952653434
 H         3.7089438939       -0.1682359366      -10.6232343696
 H         3.0056206008        4.6012490600      -10.9255625117
 H         3.4579133277        4.6560025271      -12.6360558514
 H         4.8289827201        5.9506233720      -10.4307127717
 H         3.7391084974        6.8667470305      -11.5966296268
 H         8.1893414585        5.5797153801      -13.7164709436
 H         9.5271653457        6.6496824011      -13.2427851587
 H        10.0346042478        6.4708778336      -15.4327329664
 H         9.0267601098        7.8972886227      -15.4379392779
 H         8.6146343198        6.2075847102      -20.4981591723
 H         7.3195383538        5.0866990044      -19.8160871373
 H         9.8942858194        3.5963820373      -20.2626948041
 H         9.2482619445        4.3549518341      -21.7657366691
 H         7.1895130065        0.4794454755      -18.4573553288
 H         7.8219690483        2.2133941908      -18.1253001207
 H         9.5039827032        1.2084321572      -16.6660053730
 H         8.8154681872       -0.3922621828      -17.0964699628
 H         4.8724175447        0.0067442058      -18.2684070443
 H         3.7941694251        1.4784720495      -18.1967143445
 H         3.4239721927        0.1372974513      -17.3252774552
 H         4.9071194265       -1.5528162548      -16.1075014478
 H         6.5751381874       -1.8477659068      -15.5390750435
 H         6.3345510547       -1.2527847141      -17.2018853957
 H         4.6720458917        0.4001870991      -13.7702941763
 H         6.0927859497        1.3733932659      -13.6301429305
 H         6.3786189894       -0.1888953781      -13.6568790832
 H         7.3227802810       -0.4060386964      -20.4804484040
 H         7.2846906348       -0.0041402030      -22.1909393584
 H         6.4443416086        0.8907469831      -21.1687048755
 H        10.2213114538        0.2452439252      -21.6863247807
 H        10.4199813381        1.9614554662      -21.4699510940
 H         9.4052293013        1.3278348552      -22.9534206122
 H         7.2342206477        8.3147003207      -17.6825091003
 H         6.4794091230        6.9609978159      -18.2586131800
 H         7.5042812287        7.6989480514      -19.3963434179
 H        10.7339623750        7.2511251807      -17.2918304284
 H         9.5736393052        8.6195049532      -17.4502964283
 H        10.0924307165        7.6997306874      -18.9855405964
 H         6.5253940694        9.5016287918      -11.3137059181
 H         4.9513184498        8.7143815377      -11.2959325479
 H         5.5652919898        9.1918277218      -12.8220512636
 H         6.8276417520        6.6920181660       -9.9416334524
 H         8.1512502028        7.5794003033      -10.6785381111
 H         7.8107545703        5.9117928250      -11.1711596520
 H         4.7329862730        4.8224302073       -9.1217136675
 H         4.4469460833        3.5943757069       -7.8169116584
 H         3.0669117849        4.0561945362       -8.9011898939
 H         6.0914020848        1.8743006835       -8.6126607095
 H         5.9204861643        1.5605744517      -10.3853543258
 H         4.8945823160        0.9232914155       -9.2889073617
 H        -0.0576025867       -2.0011717000      -10.0998924333
 H         1.5817118328       -2.5990940675       -9.9294993463
 H         0.2752199467       -3.6023232805      -10.4538906971
 H         0.9190204491       -4.3127613254      -13.1409020319
 H         2.2848004276       -4.1515162095      -11.9491312847
 H         2.2811666258       -3.3324352915      -13.4240978389
 H        -4.2234868126       -4.1851882487      -15.7290203644
 H        -4.8229386480       -5.6188438134      -14.8275027126
 H        -3.2582884375       -4.7423036615      -14.5643450683
 H        -5.7125162960       -2.3482654436      -15.3268316378
 H        -6.8121395500       -2.2117140624      -13.9384270376
 H        -6.9009884911       -3.6395174222      -14.9654749498
 H        -8.8476046186       -4.8608427011       -8.8032564378
 H        -7.8806736800       -3.5965346017       -9.2058595360
 H        -8.6484087985       -3.4590683005       -7.6929776926
 H        -7.3308346473       -3.3636945355       -5.7726355786
 H        -5.7684612519       -3.4713561704       -6.6195630719
 H        -6.2828131273       -4.7661547987       -5.5326454904
 H        -6.4123189938      -10.5580570755       -2.5343296766
 H        -6.8992265299       -8.8146757425       -2.5732604481
 H        -5.6512528588       -9.3595243541       -3.5668571707
 H        -7.8894992431      -11.8118156192       -4.4235428705
 H        -6.7602965029      -11.1707681762       -5.4452510652
 H        -8.4320657614      -11.0882504680       -5.9320345430
 H       -13.8101100330       -9.3652383054       -0.4031908853
 H       -14.1073813777      -10.9004671252       -1.3343117063
 H       -15.4317023652       -9.9675803159       -0.7644140635
 H       -15.0376381988       -9.3014142997       -4.5561829279
 H       -16.1266166011      -10.1522443541       -3.4770583238
 H       -14.4787556010      -10.8006116555       -3.9125195545
 H       -15.3794156143       -4.3462183963       -3.2903444163
 H       -14.3619066040       -3.1634868877       -2.4780611345
 H       -15.8564165508       -2.5583255569       -3.3924632818
 H       -16.9372640938       -2.3885068348        0.1269461068
 H       -16.2773463931       -1.4449723680       -1.1626740817
 H       -15.3069482347       -2.3962479204       -0.0471208258
 H       -21.9850990070       -3.3747582986       -4.1170374238
 H       -22.9430433942       -4.0433289430       -2.7753710206
 H       -23.0465435848       -4.8150611811       -4.4328847420
 H       -22.9987481308       -6.0390439281       -1.9942166425
 H       -21.6266279792       -7.0450318143       -1.8945205045
 H       -22.6779152993       -7.1951135181       -3.3424146030
 Na      -18.0391456665       -6.4380202164       -2.4938302829
 Na        6.3016016666        3.7106660073      -14.6644777801
