232

 C        -4.7608396670        4.4719768534      -22.3515422520
 C        -5.5854969884        3.2750799287      -21.9746949800
 O        -5.5667309547        2.9295934586      -20.8006986217
 C        -6.0546591936        2.2019518217      -23.1249784756
 C        -7.5223382018        1.6500886431      -22.9036460476
 O        -7.9449687502        1.2116711928      -21.8780434895
 C        -8.4791247739        1.6970462831      -24.0899818421
 C        -9.7734484283        1.0831980342      -23.7155246403
 C       -10.6187224118        1.9514244598      -22.7009877606
 O       -10.3856247487        3.1327764689      -22.7133859000
 C       -11.8013984416        1.4184305316      -21.8590226189
 C       -11.4004298239        0.3311755203      -20.8369499628
 O       -10.8616962131       -0.6808227184      -21.2840420922
 C       -11.6750188277        0.6127809423      -19.3827018327
 C       -10.9707241815       -0.3336376241      -18.4818167537
 C        -9.4457666998       -0.3774849161      -18.8718084776
 O        -8.8441464431        0.6400104383      -19.0219879025
 C        -8.8301223994       -1.7847375272      -18.6511166604
 C        -7.3402614433       -1.4518727656      -18.4879761165
 O        -6.5708304729       -1.3410979074      -19.3894301840
 C        -6.8512523584       -1.3254629566      -16.9979223406
 C        -5.3199041720       -1.1544954593      -16.9752494747
 C        -4.9962030634        0.3088361495      -17.2343164842
 O        -5.8209398921        1.1356110444      -17.6442956364
 C        -3.6567140250        0.7674660900      -16.6584402309
 C        -4.0124701641        0.6884523591      -15.0780818704
 O        -3.8831399685       -0.2993628050      -14.3863220064
 C        -4.6071767537        1.9851590671      -14.4879804683
 C        -5.2361334777        1.7784910898      -13.0989766809
 C        -4.0470383633        1.7550972179      -12.0191586232
 O        -2.9285996975        2.0463144676      -12.3524032542
 C        -4.4052872708        1.4071190025      -10.4972509166
 C        -3.2638948547        0.5429021793       -9.8310114774
 O        -3.0294359857        0.4796361543       -8.6590413886
 C        -2.4501544204       -0.2382981998      -10.8467654922
 C        -1.6205491066       -1.4450594462      -10.4211259675
 C        -2.5301233312       -2.6703988538       -9.9179524317
 O        -3.7078888006       -2.6785938619       -9.8197110480
 C        -1.5820919410       -3.8902722410       -9.7011802484
 C        -0.3605567945       -3.5696236888       -8.8706944418
 O        -0.2340738624       -2.5505488972       -8.1981415971
 C         0.8507753767       -4.6343841117       -8.7542247485
 C         2.0082695324       -4.0523886200       -8.0747517842
 C         2.2780843346       -4.4623440678       -6.4937169095
 O         1.3627396353       -4.9674108354       -5.8533400802
 C         3.6012184023       -4.0570431434       -5.8127996876
 C         3.5097625027       -2.4939825133       -5.6582582466
 O         3.6632344117       -1.8379721980       -6.6814586514
 C         2.8777887240       -1.7750790590       -4.3902222706
 C         2.6560298617       -0.2521479161       -4.7514964908
 C         1.8107601912       -0.1079575243       -6.0055123131
 O         0.7390854974       -0.7258578132       -5.9493149607
 C         2.0602877159        0.9665286327       -7.1832012000
 C         0.7863086748        1.9887678739       -6.9056328353
 O        -0.3417244321        1.6075089825       -7.1365497525
 C         1.0777759777        3.4235666753       -6.4508913666
 C        -0.0983507623        3.9976993989       -5.5909025063
 C        -0.4208934416        3.2316662330       -4.3702132234
 O         0.4816357725        2.6632464837       -3.7733601925
 C        -1.7862228795        3.1795629118       -3.7416274732
 C        -2.6511663798        1.9368476698       -4.3310290854
 O        -3.6793818637        2.1396600793       -4.9171531063
 C        -2.2676431066        0.4655818892       -4.1497122194
 C        -3.4280563399       -0.5077273761       -4.2090624294
 C        -3.1241667682       -1.8129257046       -4.9338785765
 O        -2.3958873829       -1.8077552076       -5.9050546362
 C        -3.8165418402       -3.0692990692       -4.3171558467
 C        -3.1216569129       -3.2088061826       -2.9373383062
 O        -3.6587479752       -2.7962439510       -1.9456905344
 C        -1.6850223369       -3.7623851585       -2.9279442432
 C        -1.5043741273       -5.2460684764       -2.5806421815
 C        -0.1238902229       -5.4979209843       -1.9613436519
 O         0.7591096112       -4.6408133360       -1.8986474607
 C         0.3030367211       -6.8630636993       -1.1020465951
 C        -0.6342644179       -6.9399423407        0.1242806568
 O        -1.7333719330       -6.5178597000        0.0303087938
 C        -0.1764557706       -7.6933668001        1.4358621284
 C        -1.4980013857       -8.2808943200        2.0556303353
 C        -1.5267695395       -9.7613911143        1.8192958841
 O        -0.5311941390      -10.3766830550        1.3616479450
 C        -2.6857395396      -10.7294820561        2.3259605384
 C        -3.5863282134      -11.0515888724        1.0701054402
 O        -3.4000124912      -10.4025172457        0.0864012537
 C        -4.6607386172      -12.0995825592        1.1425461350
 C        -2.0480670373      -11.8584994106        3.1070499041
 C        -3.7101870441      -10.0373921973        3.3611970159
 C         0.0844412578       -8.2507611683       -1.8361384938
 C         1.7971649968       -6.7564557443       -0.5427487988
 C        -5.3654592355       -2.8612587371       -4.1304336466
 C        -3.4595446239       -4.2704015494       -5.3192540070
 C        -1.7445000453        2.9308575695       -2.1975845677
 C        -2.6449869284        4.4830140641       -3.8906958417
 C         3.5618290636        1.6398033825       -7.2486701646
 C         1.8370175428        0.2777032706       -8.6248527639
 C         3.5689596460       -4.9592401273       -4.5140944785
 C         4.8397468646       -4.3677518851       -6.7586895012
 C        -2.3348316070       -5.0198204971       -8.9067069361
 C        -1.3103944774       -4.6353624329      -11.1119990098
 C        -4.5824694640        2.8500895392       -9.8278815378
 C        -5.6952448063        0.4840736175      -10.3359742144
 C        -2.4082135368        0.0052326509      -16.9516858438
 C        -3.2717745340        2.2326521634      -17.0453595696
 C        -9.3542933709       -2.4760514647      -17.4707277447
 C        -9.0240857217       -2.6393066540      -19.9330572197
 C       -12.6434933363        2.5920300097      -21.3456350412
 C       -12.7327617263        0.6711294699      -22.8695473197
 C        -6.0405163084        2.9370944616      -24.4774277704
 C        -5.1014918333        1.0023029028      -22.9870485704
 H        -4.9376137373        4.9171322810      -23.3308222758
 H        -3.7046874105        4.3401230862      -22.1588429438
 H        -4.9895915095        5.2098309738      -21.6480337640
 H        -7.9275839864        1.3974370882      -25.0099047202
 H        -8.4789363227        2.7266939772      -24.3716939132
 H        -9.5706203632        0.0839767745      -23.2254753483
 H       -10.3976920439        0.8774670104      -24.6132402068
 H       -12.7643350546        0.7075617656      -19.2069354678
 H       -11.2723406579        1.6100711254      -19.2975721919
 H       -11.3931667956       -1.3314792881      -18.6168102158
 H       -10.9856283580       -0.0073928269      -17.4070442963
 H        -7.0566971216       -2.1994956196      -16.3891116306
 H        -7.3582896653       -0.4719045854      -16.6004042546
 H        -4.7502284288       -1.6554479416      -17.7225097278
 H        -4.6805854827       -1.3290695856      -16.0386167863
 H        -5.3237348429        2.3931430635      -15.1458802642
 H        -3.8169350677        2.7952208544      -14.4487768158
 H        -5.6914571720        0.8151626457      -13.0423088194
 H        -6.0224812423        2.4903167306      -12.8593401633
 H        -1.8300564336        0.5843021610      -11.1371925988
 H        -3.0009402053       -0.3695974604      -11.7752746940
 H        -0.9506479844       -1.1235222067       -9.5919685808
 H        -0.9353747202       -1.6626062803      -11.2901132462
 H         1.3302552994       -5.1106552537       -9.7298312542
 H         0.3630097822       -5.4278347513       -8.2452948640
 H         1.9307645784       -2.9571914742       -7.9653230711
 H         2.9293638723       -4.1701172702       -8.5865754781
 H         3.5271429907       -2.0261130340       -3.5610175701
 H         1.9338446481       -2.3094241199       -4.2019019768
 H         3.6168870080        0.2454681472       -4.6235253406
 H         1.9703882697        0.0371800875       -3.9294375749
 H         1.2579507627        4.1485967591       -7.3270664250
 H         1.9836568860        3.4767081415       -5.8406669394
 H        -0.9608348819        4.0962144405       -6.2513567160
 H         0.2272778470        4.9712525547       -5.1668446157
 H        -1.6090431555        0.3081120930       -3.3447171130
 H        -1.5628445949        0.2610038967       -4.9632281753
 H        -4.3254233023        0.0195795337       -4.5905490606
 H        -3.7507813960       -0.7725614732       -3.1574355188
 H        -1.2018013792       -3.1043771289       -2.1648552887
 H        -1.2091462515       -3.3986690531       -3.8511439945
 H        -1.7146053545       -5.8380694571       -3.5125724282
 H        -2.3062803601       -5.5689785789       -1.9002346783
 H         0.3315891301       -7.1060478534        2.1692001192
 H         0.4429378400       -8.5348259236        1.1479839427
 H        -2.4550743791       -7.8454630921        1.7169725505
 H        -1.5745427998       -8.2017703758        3.2198631660
 H        -4.6164168535      -12.5201488282        2.1519411891
 H        -4.5530104377      -12.9279264636        0.4342730958
 H        -5.6596547888      -11.6721516385        1.0047008982
 H        -2.7978483046      -12.6581757949        3.3316359797
 H        -1.5997387898      -11.5349255397        4.0454445233
 H        -1.2666218909      -12.2959945276        2.5341512746
 H        -4.4030723106      -10.8358753112        3.4206650523
 H        -4.0988299133       -9.1210075339        2.9246845518
 H        -3.2024575607       -9.9132448467        4.3201554305
 H         0.2525648856       -8.9890465309       -1.0897856962
 H         0.8046294549       -8.4243600144       -2.7108048182
 H        -0.9387181036       -8.1508196939       -2.1086469992
 H         2.3415346830       -6.2570996707       -1.2832493172
 H         2.3509487010       -7.7150713790       -0.4416274179
 H         1.9395458930       -6.1068996861        0.3028534434
 H        -5.6126069907       -2.4921435328       -3.1545435720
 H        -5.8086916277       -3.7776717103       -4.4175635506
 H        -5.7196379461       -2.0520351957       -4.8501814129
 H        -3.3332437373       -5.2491797606       -4.8023620510
 H        -2.6530318518       -3.8212515302       -5.9394823747
 H        -4.2498006432       -4.4138270703       -6.0913626854
 H        -2.7548191012        3.2034140167       -1.9086965954
 H        -1.0536891726        3.5385871718       -1.6421045398
 H        -1.6202663391        1.8744001648       -1.8440335538
 H        -2.6831727050        4.9606048959       -4.9074264221
 H        -2.2928898101        5.2475607370       -3.2733652655
 H        -3.6808040594        4.4133337801       -3.6553664885
 H         3.6687380427        2.3704040055       -7.9689291274
 H         4.0601919767        0.6900321628       -7.5194193738
 H         3.8395815550        1.9674227092       -6.2824765723
 H         0.8518428572       -0.2047745983       -8.7707382010
 H         2.5508420016       -0.4696374379       -8.7859920813
 H         2.0130649209        1.0823942358       -9.3005816414
 H         3.4063493784       -5.9352494592       -4.8554022696
 H         2.8675429872       -4.7563886246       -3.7292385593
 H         4.5384432607       -4.7530614992       -4.0867259271
 H         5.3554011021       -3.4980853101       -7.0272098087
 H         4.6410178178       -5.0033031693       -7.6880449432
 H         5.5949800353       -4.9338083881       -6.2343134782
 H        -1.7038594279       -5.9316898667       -9.0516930005
 H        -3.3446842950       -5.1109168579       -9.1759458554
 H        -2.3665819722       -4.9233209076       -7.8700915744
 H        -0.5546435064       -5.3278527242      -10.8124203084
 H        -0.9698077088       -3.8159093121      -11.8706132194
 H        -2.2372787608       -5.0516264704      -11.3927354887
 H        -3.6148254036        3.3065100447       -9.9630941421
 H        -4.7195894428        2.9077064054       -8.7458540726
 H        -5.3183440127        3.5367722571      -10.1736274371
 H        -5.5460707623       -0.1728952267       -9.4842186137
 H        -5.9333167686       -0.1726461365      -11.1302684779
 H        -6.7230384994        0.9064231862      -10.1481796546
 H        -1.6703260581        0.1243686950      -16.1909056512
 H        -1.9483472095        0.3045334354      -17.9323301567
 H        -2.4773819061       -1.1055272001      -17.1455242863
 H        -2.3405404408        2.3974243300      -16.3902474507
 H        -3.9703906979        3.0540864207      -16.8462799145
 H        -2.9408138729        2.1159726216      -18.0359691738
 H        -8.8842671873       -3.4762254050      -17.5063137642
 H       -10.3913545491       -2.5385759501      -17.3749356074
 H        -9.1029478919       -2.0453594251      -16.4742223865
 H        -8.5746182275       -3.6700630874      -19.8298590729
 H        -8.6096559407       -2.0884808523      -20.6609667003
 H       -10.1155679927       -2.7289685302      -20.0442193415
 H       -12.3182485232        3.0079225623      -20.4075920694
 H       -13.6958604646        2.2701610380      -21.1452026588
 H       -12.5618936696        3.5559817045      -21.9820042093
 H       -13.4217162279        1.3338990277      -23.4433500793
 H       -13.3504450362       -0.0545728002      -22.3998635930
 H       -12.0587527965        0.3085089252      -23.6137103816
 H        -6.4597616635        2.2969294153      -25.2559001537
 H        -4.9809702654        3.1163990206      -24.6825552370
 H        -6.6143685698        3.8623825148      -24.4598428294
 H        -5.2946681376        0.4322197832      -22.0686915145
 H        -4.0687253929        1.1255635030      -23.0897759079
 H        -5.3863399492        0.3333808296      -23.8428690243
 Na       -6.7059082303        1.0689876880      -19.7432801822
 Na       -1.1073651684       -0.6494697915       -7.5641265144
