232

 C        -5.3925707032        4.7174187037      -22.1352495964
 C        -5.8982478861        3.2811868726      -21.8919214979
 O        -6.2962339913        3.0775523751      -20.7229949720
 C        -5.9469840328        2.1290767213      -22.8789255820
 C        -7.5132862020        1.6772457988      -22.7956840874
 O        -8.0538100214        1.1298125179      -21.8389837503
 C        -8.4963338446        1.6458459594      -24.0029988114
 C        -9.9314852606        1.2439034882      -23.6480151122
 C       -10.7422895364        2.1458076732      -22.8380371864
 O       -10.4016158227        3.2693289953      -22.5464242854
 C       -12.1385761019        1.5407853372      -22.1957556070
 C       -11.5322736726        0.6346813300      -20.9288569025
 O       -10.7280956231       -0.2494790850      -21.2803623534
 C       -11.9072603810        0.6892268665      -19.4102638289
 C       -11.2448392135       -0.5173104898      -18.7031742198
 C        -9.6927076785       -0.5235776571      -18.6439155749
 O        -9.0722997874        0.4774509769      -18.8189772507
 C        -8.8941340263       -1.8698444916      -18.2967584763
 C        -7.3742339643       -1.6352563364      -18.3214141505
 O        -6.7622856579       -1.2755085678      -19.2877766821
 C        -6.5874783137       -1.9246905427      -17.0396017320
 C        -5.1558224515       -1.3522804741      -17.1233125957
 C        -4.9232533075        0.1770267678      -17.1447381573
 O        -5.7421973504        0.9509973791      -17.6089524535
 C        -3.6306538854        0.7973318102      -16.5502109323
 C        -3.9326847744        1.0732824374      -15.0206480676
 O        -3.8114638791        0.2520686913      -14.1431067491
 C        -4.4768974735        2.4551654936      -14.5610472278
 C        -5.1094548310        2.3585361732      -13.1469707502
 C        -3.9166690194        2.0405899682      -12.0963885977
 O        -2.7845000204        2.3956545336      -12.3769483420
 C        -4.2547081220        1.4842401899      -10.7063671909
 C        -3.0845427558        0.4776935069      -10.2891648657
 O        -2.6396745376        0.4709456754       -9.1677851341
 C        -2.6844437788       -0.6255115540      -11.3651333870
 C        -1.6140853930       -1.5156072693      -10.7290916131
 C        -2.2874856510       -2.7950828598      -10.2064758693
 O        -3.4954032298       -2.8624605929      -10.0006560406
 C        -1.4414111840       -4.0139603380       -9.7530201634
 C        -0.1404461300       -3.5624051925       -8.7957017330
 O        -0.2380150173       -2.5912010297       -8.0246053018
 C         1.0898612821       -4.4891231773       -8.7781935384
 C         2.2836856697       -3.8924769025       -8.0152014153
 C         2.5363778628       -4.6353219698       -6.6093627401
 O         1.9142341880       -5.6173992505       -6.3778535557
 C         3.6970224500       -4.1525828362       -5.8345126314
 C         3.7211562762       -2.6092857147       -5.9146366833
 O         4.0849894629       -1.9789035044       -6.8911192285
 C         3.0313144582       -1.8913314298       -4.6897515536
 C         2.9648280287       -0.3528230518       -4.8054395319
 C         1.7566849379       -0.0470652261       -5.6797051518
 O         0.7250612233       -0.6248608522       -5.5856728062
 C         1.9640877054        0.8910042679       -6.9960114791
 C         0.7472148884        1.8568160416       -7.0088415437
 O        -0.3279113290        1.5506849601       -7.4516646783
 C         0.9770134113        3.3470348017       -6.4966052623
 C        -0.3370662798        3.8596707705       -5.8768475787
 C        -0.5465313736        3.2697759198       -4.4563456238
 O         0.3891155637        2.6859700153       -3.8973499251
 C        -1.9307501493        3.3357616048       -3.7609573296
 C        -2.9123557155        2.1317220385       -4.3779891309
 O        -4.0369478781        2.3600385002       -4.7476976682
 C        -2.4953113186        0.6666928156       -4.4202904663
 C        -3.4822058219       -0.4212105178       -4.0567868891
 C        -3.2233746069       -1.8115890269       -4.7271651685
 O        -2.5943715685       -1.9375418355       -5.7641323077
 C        -3.8100157241       -3.0814638528       -3.9985183196
 C        -3.1518370194       -3.2437586509       -2.6243831747
 O        -3.6981274408       -3.1366647362       -1.5512662255
 C        -1.6326389998       -3.5636480750       -2.7133508563
 C        -1.3939855839       -5.0755517179       -2.6383314113
 C        -0.0551444825       -5.2798860776       -1.8876585612
 O         0.8755076149       -4.4640849362       -1.8939182356
 C         0.2469096528       -6.7962132576       -1.2838945454
 C        -0.7741681378       -7.0433144277       -0.0788645305
 O        -1.9347897386       -6.7070902341       -0.0929488319
 C        -0.2393013371       -7.4949272426        1.4464970933
 C        -1.3038489923       -8.3324259480        2.1575992876
 C        -1.3416579524       -9.7911709508        1.7636918958
 O        -0.4253706069      -10.3430908424        1.1537331037
 C        -2.5477497497      -10.6242247766        2.1801540883
 C        -3.3756498734      -11.1871279241        0.8425544902
 O        -3.6846169107      -10.3261561770        0.0584925515
 C        -3.8175006002      -12.6424666800        0.7067482198
 C        -2.0248712924      -11.8486628167        3.1559594543
 C        -3.5796853331       -9.8699151904        2.9950815451
 C        -0.1858752339       -7.8835798045       -2.4695404325
 C         1.6738883727       -6.8960751404       -0.7520964811
 C        -5.2841066095       -2.8901894126       -3.8235340503
 C        -3.5604610970       -4.2847659374       -4.9524569178
 C        -1.8591214574        3.1095191267       -2.2393303570
 C        -2.5727311826        4.6290108311       -4.1243961452
 C         3.3155208004        1.6876523126       -7.0431806336
 C         1.9130582228       -0.0141361370       -8.2409843749
 C         3.5642890825       -4.6571166116       -4.3895127003
 C         4.9491913256       -4.8086833648       -6.4569330987
 C        -2.3210115451       -4.9655866877       -8.9067758163
 C        -0.9095649003       -4.7745788233      -10.9901265380
 C        -4.1849513683        2.6034476488       -9.5672158019
 C        -5.5639629013        0.7458268179      -10.6678853223
 C        -2.2829366177       -0.1247711229      -16.4537429075
 C        -3.3233211697        2.1002358144      -17.3763192367
 C        -9.5624685963       -2.5533482384      -17.1331930987
 C        -8.9600133227       -2.8379036762      -19.5961101895
 C       -12.9449034549        2.6747985009      -21.6455595730
 C       -12.9089956687        0.5786980487      -23.1809629973
 C        -5.6545874333        2.6070933940      -24.3223211524
 C        -5.0999444839        0.8419724002      -22.4036216508
 H        -5.6524136017        5.0412463657      -23.1176348689
 H        -4.3281621472        4.9045873330      -22.0993533108
 H        -5.7914772696        5.3704189479      -21.4217028539
 H        -8.0005237872        1.0047444990      -24.8221752588
 H        -8.4315664388        2.6057355963      -24.5031187435
 H       -10.0489555376        0.2529209825      -23.1513142006
 H       -10.4243060511        1.1755596503      -24.6115801143
 H       -13.0178516275        0.6155375892      -19.2780700327
 H       -11.7570891587        1.6968691174      -19.0350080398
 H       -11.5346988856       -1.4447728161      -19.1854005166
 H       -11.6308389216       -0.5170043306      -17.6601582043
 H        -6.5344150587       -2.9920371926      -16.6828631918
 H        -7.2362535768       -1.4623712459      -16.3050667574
 H        -4.6189672749       -1.5636575333      -18.0307162307
 H        -4.3584766829       -1.6962419044      -16.3875404977
 H        -5.1292782108        2.9419882027      -15.2582598154
 H        -3.5977874694        3.1941215076      -14.5105491793
 H        -5.9279396453        1.6677254426      -13.0908074211
 H        -5.5682362378        3.2985621241      -12.7952527464
 H        -2.4464169737       -0.1326349606      -12.3118114732
 H        -3.6709028231       -1.1256784641      -11.6283124532
 H        -1.1885229722       -0.9084948565       -9.9549376552
 H        -0.8820665583       -1.8016614911      -11.4963574463
 H         1.4030103358       -4.5356505066       -9.8617075466
 H         0.8694064891       -5.4739708625       -8.4418425217
 H         2.2733846216       -2.8088520817       -7.7418787051
 H         3.1891724496       -4.1280179718       -8.5738580573
 H         3.6331556471       -2.2684768463       -3.8745849372
 H         2.0880912238       -2.3901129928       -4.4242642044
 H         3.9230181864       -0.0250970465       -5.1418908761
 H         2.8408063106       -0.0942473688       -3.7392085786
 H         1.3668005692        4.0422827912       -7.3142466211
 H         1.6662891553        3.4406234775       -5.7195627773
 H        -1.1725077593        3.5519844920       -6.5234082047
 H        -0.2994895147        4.9122257206       -5.7365933997
 H        -1.5631332039        0.5004413316       -3.9667830653
 H        -2.1781433145        0.5747593899       -5.4923032520
 H        -4.5113192833       -0.1830483464       -4.2057366219
 H        -3.3991403973       -0.5150539903       -2.9678938444
 H        -1.0837581419       -3.0850297764       -1.8682163845
 H        -1.1484490478       -3.0695669408       -3.5616454742
 H        -1.2724326680       -5.5200115617       -3.6383884468
 H        -2.1650903309       -5.6283238009       -2.1149562728
 H        -0.1625306841       -6.4656791506        1.8604145911
 H         0.7752380515       -7.9600061467        1.4918405586
 H        -2.3185629628       -7.8460307668        2.0741958570
 H        -1.1181844531       -8.2678286639        3.3005606437
 H        -3.8618807412      -13.0911557990        1.6588182559
 H        -3.1248549715      -13.2422004234        0.0975186763
 H        -4.7858217694      -12.6398806155        0.2295352778
 H        -2.7193777408      -12.1146885195        3.9435899262
 H        -1.1953805305      -11.4524251211        3.7117857724
 H        -1.6438801319      -12.7029882682        2.6467554637
 H        -4.3316641382      -10.5585274185        3.2972456008
 H        -4.0139623624       -9.1482874781        2.3159353943
 H        -3.0349850512       -9.5518661575        3.8470325974
 H        -0.1227824929       -8.8565679802       -2.0369602712
 H         0.2964726097       -7.6996580642       -3.4683209547
 H        -1.1874988530       -7.7038904661       -2.5796719270
 H         2.3796798552       -7.0001370223       -1.5552635185
 H         1.8322799810       -7.7538685065       -0.0520535816
 H         1.9287836095       -6.1043954516       -0.0755928268
 H        -5.6173711072       -1.9054081012       -3.5645505098
 H        -5.4949882023       -3.4816106040       -2.9557653414
 H        -5.8305389715       -3.2968622610       -4.7317662957
 H        -4.2751925985       -5.0971795105       -4.8236986537
 H        -2.5849288734       -4.6893510177       -4.7011098176
 H        -3.5040720421       -3.8782462910       -5.9872984695
 H        -2.8304892842        2.7926601902       -1.8946213376
 H        -1.6937087339        3.9968247719       -1.6282303218
 H        -1.0377002337        2.4270229806       -1.9402728426
 H        -2.8644249975        4.6033057970       -5.2415526897
 H        -1.9376637803        5.5135695192       -3.9433078111
 H        -3.4570664917        4.9307811959       -3.6238907592
 H         3.1040365362        2.5189027408       -7.6835581558
 H         4.0304630005        1.0608161432       -7.5864722912
 H         3.4808886296        1.9418234633       -5.9896951040
 H         0.8363234847       -0.3027347472       -8.4419822108
 H         2.6814947064       -0.7696235811       -8.2747973401
 H         2.0552879016        0.7176568351       -9.0451388447
 H         3.6406549962       -5.7438825887       -4.3570516024
 H         2.6094500754       -4.4333673563       -4.0102492543
 H         4.4306413014       -4.2686859683       -3.7867900787
 H         5.5241003007       -5.3020756219       -5.7762085087
 H         5.5956839604       -4.0957721966       -7.0941939298
 H         4.7485092266       -5.5737480023       -7.1520670284
 H        -1.8008773382       -5.8521764308       -8.4372450122
 H        -3.1029964499       -5.3529051453       -9.5677142069
 H        -2.8103565640       -4.5028105247       -8.1106093760
 H        -0.8478320512       -5.8010251680      -10.7349242783
 H         0.0485406541       -4.4226844762      -11.3510205233
 H        -1.5667913226       -4.4769178051      -11.7287772746
 H        -3.2110381551        3.1731647769       -9.4599819473
 H        -4.4301956896        2.1942319597       -8.5771673711
 H        -4.9403531149        3.3672950874       -9.6606597871
 H        -6.0050489898        0.7836624965       -9.7248242124
 H        -5.5408230326       -0.2696539682      -10.9668086989
 H        -6.3222485327        1.1862947162      -11.2985792063
 H        -1.4401728100        0.4198866123      -16.7307333999
 H        -2.3315821296       -1.1497140942      -16.8436044084
 H        -2.1490754268       -0.3710765736      -15.3460409729
 H        -2.6003850010        2.6303806277      -16.7499440795
 H        -4.3324794847        2.5924366737      -17.4769164767
 H        -2.9153253052        1.8033713975      -18.3424353300
 H        -9.1629425962       -3.6367572454      -17.0769040344
 H       -10.5806774953       -2.6047947059      -17.2931796825
 H        -9.3608915937       -2.1727821661      -16.1300033260
 H        -8.3904603732       -3.7558926044      -19.5372760616
 H        -8.7308629355       -2.1144226642      -20.4382645286
 H       -10.0409007523       -3.1135108932      -19.6646073639
 H       -12.3328754134        3.2339138406      -20.9673875150
 H       -13.8545278396        2.2858186282      -21.1354612822
 H       -13.3397709167        3.4139718138      -22.4212739466
 H       -12.7570703062        0.9415453248      -24.2229540029
 H       -13.9113747908        0.5109271039      -22.9105154242
 H       -12.5162365390       -0.4776716545      -23.2008322232
 H        -5.8437419635        1.9034296025      -25.1645688226
 H        -4.6487408096        2.9546140155      -24.3544268958
 H        -6.3565559984        3.5098557277      -24.3621883173
 H        -5.4875395913        0.5701626986      -21.3986073753
 H        -4.0420060567        0.8781434117      -22.4068351164
 H        -5.3501699062       -0.0789661363      -22.9563774847
 Na       -6.9666835090        1.0690832089      -19.5588455992
 Na       -1.4211314990       -0.4844947924       -7.1975746023
