232

 C        -6.0648688548        4.8022202050      -22.0942426323
 C        -6.1469773083        3.3407932489      -21.6584712172
 O        -6.4374003737        3.1619389507      -20.4499041890
 C        -6.1537087247        1.9691371197      -22.5953646699
 C        -7.7220883769        1.4734190624      -22.7027895388
 O        -8.2488555605        0.7853411125      -21.8368658389
 C        -8.4812679240        2.0109794845      -24.0241333143
 C        -9.8891437512        1.4611413913      -23.9142775594
 C       -10.6993651061        2.2397079958      -22.8236155985
 O       -10.4440146742        3.3626379110      -22.4314868528
 C       -11.9161727857        1.4359057359      -22.1831827153
 C       -11.3973431817        0.3447857360      -21.1012195493
 O       -10.7858141210       -0.6176092615      -21.5474491888
 C       -11.6461577112        0.5366597792      -19.6272471919
 C       -11.3191672953       -0.5586851522      -18.6356628467
 C        -9.7975046219       -0.4788514822      -18.4293559474
 O        -9.2576939396        0.5620236319      -18.5542529313
 C        -8.9680242470       -1.8221774219      -18.2424634971
 C        -7.4769789189       -1.5395133054      -18.3812655000
 O        -6.9359874459       -1.1892900518      -19.4150642671
 C        -6.7010623328       -1.8890886118      -17.1146941982
 C        -5.2334158488       -1.4433640410      -16.9937094811
 C        -4.9498126693        0.1099748022      -17.0753526951
 O        -5.7431987662        0.9038304257      -17.5500265900
 C        -3.5904461131        0.7262573500      -16.3566260731
 C        -3.9984787616        1.1561743288      -14.8715615927
 O        -3.9259385578        0.3673320068      -13.9694677123
 C        -4.3659545609        2.6186374308      -14.5785720709
 C        -4.7686194368        2.8034322163      -13.0444324696
 C        -3.6950885235        2.2728834786      -12.0565476384
 O        -2.5634622270        2.6470434145      -12.2480312670
 C        -4.0105145026        1.4815717767      -10.7321610312
 C        -2.8419430524        0.3528923590      -10.4174289299
 O        -2.4500166314        0.2237397663       -9.3042532653
 C        -2.4979520960       -0.5989791270      -11.5452856935
 C        -1.6547175674       -1.7637514866      -11.1454916068
 C        -2.3282585872       -2.8389489048      -10.2478126241
 O        -3.5256345372       -2.8753052846      -10.0672370238
 C        -1.3208729040       -4.0863800322       -9.7545512767
 C        -0.0205717993       -3.6617357522       -8.9338593947
 O        -0.0471127619       -2.6038104944       -8.2713326822
 C         1.1376653563       -4.6400667136       -8.7610150964
 C         2.2540606386       -3.8067861663       -7.9648056062
 C         2.6979950971       -4.8695726089       -6.7999234547
 O         2.2250283367       -5.9662818304       -6.7596200611
 C         3.7326923775       -4.2633517950       -5.7630532353
 C         3.7692014291       -2.7056589756       -5.6622653500
 O         4.5050536079       -2.1136670708       -6.4266580266
 C         3.0338441417       -1.8960396154       -4.5213823371
 C         2.8446876144       -0.4475468888       -4.9330541358
 C         1.6777776688       -0.1125205342       -5.8960450337
 O         0.6111381264       -0.5733744511       -5.6864911600
 C         1.9301226363        0.9413259801       -7.0901184458
 C         0.5818584552        1.8129541075       -7.0630421732
 O        -0.5187228752        1.3782351127       -7.4132953556
 C         0.7194224084        3.3482411671       -6.6822005147
 C        -0.6052131997        3.7816061574       -5.9018004080
 C        -0.8027418851        3.2136700340       -4.5410068699
 O        -0.1150182826        2.2499257797       -4.1922588118
 C        -2.1128536590        3.4278129530       -3.6934270160
 C        -3.0394100791        2.2576329037       -4.1407234586
 O        -4.1556617134        2.4926338481       -4.5478126849
 C        -2.4586395160        0.7874400653       -4.2065752574
 C        -3.6507680469       -0.2078484656       -4.2886817948
 C        -3.2427733004       -1.5721326824       -4.7883023116
 O        -2.6871009062       -1.7720825406       -5.8432661717
 C        -3.8797206806       -2.6937991615       -3.9779297788
 C        -3.0889979839       -3.1276736644       -2.5736307604
 O        -3.7526768726       -3.3892314651       -1.6070862545
 C        -1.4600197110       -3.2518775297       -2.5950699884
 C        -1.1838206820       -4.7414782493       -2.1886970802
 C         0.2016967457       -5.2180778242       -1.7940373761
 O         1.1606722812       -4.4483919214       -1.6962386743
 C         0.2365523702       -6.8446523870       -1.4211025090
 C        -0.7103507070       -7.0532330412       -0.2222743289
 O        -1.9027196176       -6.9287761116       -0.2912133223
 C        -0.1688727712       -7.6142139971        1.2172879824
 C        -1.2653449304       -8.2742431996        2.0297622567
 C        -1.3445409448       -9.7133684235        1.7081735627
 O        -0.5676692493      -10.2756518466        0.8896715286
 C        -2.5616679255      -10.6730435896        2.1891075541
 C        -3.1378026185      -11.1275398216        0.7728442266
 O        -3.8018731393      -10.4559295140        0.0359177215
 C        -2.8771839645      -12.5641474443        0.4393511028
 C        -1.9329578015      -11.7901344850        2.9962900071
 C        -3.6285014762       -9.9481514045        3.0659405382
 C        -0.3848668918       -7.7438328528       -2.5127523005
 C         1.7039663094       -7.1194304254       -1.0914209763
 C        -5.2737245524       -2.3125176309       -3.5398234467
 C        -3.9059169974       -3.9934501199       -4.8188548258
 C        -1.9146417729        3.2381147228       -2.2263764018
 C        -2.8578948543        4.7897241889       -4.1120748291
 C         3.3114205877        1.8192046725       -6.9272871630
 C         2.0800030322        0.1105888485       -8.3031634958
 C         3.5273365609       -4.9187130163       -4.3980466816
 C         5.1935629931       -4.6578047313       -6.2252321735
 C        -2.1542032296       -4.9621297929       -8.8282452315
 C        -0.9964124632       -4.9111158947      -11.0408931156
 C        -3.9872141635        2.5851694215       -9.6657684158
 C        -5.3620219005        0.7486934140      -10.7760415089
 C        -2.3262326132       -0.1499478873      -16.3795013949
 C        -3.2894382085        1.9719661852      -17.3227793159
 C        -9.4823983427       -2.4472016546      -16.9213288547
 C        -9.4775672388       -2.7551045864      -19.4626695441
 C       -12.7544696704        2.5369641083      -21.5359442917
 C       -12.7012462378        0.6409238839      -23.2553963994
 C        -5.7177655772        2.3583250519      -23.9851136228
 C        -5.2054387114        0.8803075454      -21.9769793121
 H        -7.1405573643        4.9116185820      -22.4741205803
 H        -5.5357940732        5.0983149363      -23.0649290964
 H        -5.8098134985        5.4315554071      -21.2377301585
 H        -7.9356869793        1.6289995031      -24.9124426037
 H        -8.3820161321        3.1317632674      -24.0163136366
 H        -9.9194391496        0.4479962573      -23.5545607513
 H       -10.2934035112        1.4826358147      -24.9090632814
 H       -12.6997123439        0.8234824146      -19.5848643645
 H       -11.2421123445        1.5204677703      -19.3141050662
 H       -11.6294735415       -1.5625516108      -18.8749322054
 H       -11.7014313811       -0.3283363581      -17.6480691548
 H        -6.7417354943       -2.9135643324      -16.7388698833
 H        -7.4143340782       -1.4517510861      -16.3406883564
 H        -4.5642508906       -1.7738201399      -17.7649614402
 H        -4.6694707194       -1.7313041410      -16.0553863426
 H        -5.2117250371        2.8705793358      -15.1992266020
 H        -3.5752677109        3.3222222708      -14.9016151865
 H        -5.7407768724        2.3338213407      -12.8283044379
 H        -4.8908141794        3.8862085320      -12.7819693843
 H        -2.0384444201        0.0408778513      -12.3218063930
 H        -3.3756053584       -1.0017747364      -12.0759962390
 H        -0.8281067433       -1.4583675807      -10.4683270099
 H        -1.3814626507       -2.1441296570      -12.0695971558
 H         1.4419325364       -5.0796942858       -9.7631624674
 H         0.7754168214       -5.3734255251       -8.1713296297
 H         1.7449575217       -2.8910283935       -7.5483566212
 H         3.1254042977       -3.6674679188       -8.6227320588
 H         3.6949244999       -2.1694816155       -3.6761495495
 H         2.1409123562       -2.4345958677       -4.1809572705
 H         3.8306346275       -0.1415228921       -5.2979378663
 H         2.6295854644        0.0606352296       -4.0090376779
 H         0.7330176870        3.9146234245       -7.5885052626
 H         1.6325607173        3.6368236742       -6.1777066403
 H        -1.4028487697        3.4591190147       -6.5370923452
 H        -0.6125722344        4.9102056544       -5.7782992017
 H        -1.7305467255        0.6372277203       -3.3553373907
 H        -1.8266548213        0.6158132191       -5.1208444591
 H        -4.4251083645        0.2358292603       -4.9572479592
 H        -4.1144042545       -0.2368942427       -3.3154169323
 H        -0.9501791997       -2.6208641583       -1.8688946889
 H        -0.9164118272       -3.0527745262       -3.4924829097
 H        -1.5001861727       -5.4141074541       -3.0474865433
 H        -1.7581508802       -5.0291974192       -1.3388818131
 H         0.3769217028       -6.7873463112        1.7077521202
 H         0.5814416042       -8.3560895164        0.9369407102
 H        -2.1976201783       -7.8466722533        1.7453055926
 H        -1.1878744012       -8.0951805684        3.0783389583
 H        -3.6204127252      -13.1726984584        1.0049464333
 H        -1.8831127484      -12.8987743140        0.7427789178
 H        -3.0037244023      -12.7576498509       -0.6358195379
 H        -2.6047979419      -12.6937492776        2.8660739643
 H        -1.9183817900      -11.5817329488        4.0767865931
 H        -0.9167327096      -12.0255226342        2.7105751139
 H        -4.2000923995      -10.8103465807        3.3913314948
 H        -4.2790127545       -9.2906092152        2.4803860177
 H        -3.0524305475       -9.7019787040        3.9771734970
 H        -0.3580978501       -8.6943210840       -2.0382281088
 H         0.2068259554       -7.4715583188       -3.4807462547
 H        -1.4071224341       -7.5169997589       -2.7442590345
 H         2.4329446245       -6.8283383359       -1.8292741366
 H         1.8146229824       -8.2380524222       -0.9626568885
 H         2.0818675887       -6.8157795938       -0.1117671999
 H        -5.3325219857       -1.5368705549       -2.8048082502
 H        -5.7535430186       -3.1337939940       -3.0607393164
 H        -5.8138493162       -2.0558719469       -4.4902317166
 H        -3.7709273647       -4.9230893975       -4.2993033485
 H        -3.0399450151       -3.9662795095       -5.4838726604
 H        -4.8093485841       -3.9079891741       -5.3501797661
 H        -2.8065635617        3.3469507587       -1.6318585390
 H        -1.3077090812        4.0280812944       -1.8420379796
 H        -1.3674898198        2.3099065906       -1.9806831092
 H        -2.9307077697        4.7915162284       -5.2538501651
 H        -2.4081205575        5.7054904926       -3.8083059283
 H        -3.8803432862        4.8480175066       -3.7239732260
 H         3.3380082997        2.3852958968       -7.8253843539
 H         4.1010434129        1.0220636711       -6.8413160530
 H         3.3070465324        2.3257898189       -5.9588299289
 H         1.1077697798       -0.4060584287       -8.5343395708
 H         2.8612248832       -0.4926074200       -7.9345860925
 H         2.3719718327        0.5349949916       -9.2618581107
 H         3.6168358357       -5.9929529092       -4.4724014456
 H         2.5741842408       -4.6423517891       -3.9182244660
 H         4.4674380952       -4.7615587220       -3.8321979197
 H         5.5669211891       -5.6066736414       -6.1655978023
 H         5.8706460784       -3.9943339507       -5.5150840277
 H         5.4755618499       -4.2934219601       -7.2365666214
 H        -1.7776831490       -6.0611743771       -8.7421924768
 H        -3.1276771590       -5.1866712368       -9.2351688094
 H        -2.1915428053       -4.5429948745       -7.8402951066
 H        -0.2899510558       -5.6942387438      -10.7642775238
 H        -0.5757642853       -4.1965089637      -11.8558608375
 H        -1.9276736423       -5.3186251226      -11.3379565259
 H        -3.0033387331        3.0370227240       -9.6847279043
 H        -4.0795571760        2.2104165869       -8.6366359860
 H        -4.6577714884        3.4257147822       -9.8083349919
 H        -5.3678339165       -0.2703151353      -10.3309886055
 H        -5.7415570974        0.6084065925      -11.7830432555
 H        -6.1698191823        1.2897879733      -10.1488225584
 H        -1.4874696308        0.4440381396      -16.2510650753
 H        -2.3158040710       -0.6508851550      -17.3961691112
 H        -2.2945312338       -0.9315313165      -15.5866848373
 H        -2.3283167330        2.4021925635      -17.0027147652
 H        -4.1760455673        2.5369775830      -17.4960467470
 H        -3.0653005276        1.4755819831      -18.1875611929
 H        -8.9463937832       -3.3667982091      -16.6272551855
 H       -10.4422719570       -2.7746735067      -17.1186040068
 H        -9.4281659343       -1.7925187146      -16.0104198072
 H        -8.8056933095       -3.5987645022      -19.4927345019
 H        -9.2765047239       -2.1609361499      -20.3834193936
 H       -10.5313275018       -3.0503861636      -19.4732380374
 H       -12.3067192716        3.4495892426      -21.7160566842
 H       -12.9009151344        2.4475218966      -20.5014619913
 H       -13.7985644058        2.5468890600      -21.9489932464
 H       -13.1747837692        1.3880725394      -23.9403552170
 H       -13.3589107649       -0.1144029695      -22.8580952654
 H       -12.0593821398       -0.0239467672      -23.8003687861
 H        -5.7383303823        1.4626536950      -24.5779690655
 H        -4.7354165854        2.7814891026      -24.0229879278
 H        -6.4527086476        3.0164647480      -24.4252090182
 H        -5.5932750167        0.4572327110      -21.0476998284
 H        -4.2411056974        1.2631308681      -21.7525618805
 H        -5.0753002527       -0.0582077657      -22.5798524412
 Na       -7.3104591043        1.1485787750      -19.5467703679
 Na       -1.0857526147       -0.8819339927       -7.4378890400
