232

 C       -20.9066460136       -5.5179251543       -5.8619392067
 C       -20.6189240991       -5.9582368318       -4.4156394977
 O       -19.7300551425       -6.7768050217       -4.3107438976
 C       -21.4407738880       -5.3713605768       -3.1962353975
 C       -20.4329383335       -4.8277080511       -2.1335071056
 O       -19.8409341655       -5.7193420276       -1.4767793771
 C       -20.3480321511       -3.3654403711       -1.5720487778
 C       -18.8354238326       -3.0775258993       -1.1569655256
 C       -17.8125933327       -3.5993898344       -2.1733995050
 O       -18.0162266168       -4.0729560765       -3.2917498261
 C       -16.3300046548       -3.5253737099       -1.7265466853
 C       -16.1604225252       -4.8945024825       -0.9860652278
 O       -17.1480332083       -5.4611359649       -0.4754471395
 C       -14.7275502515       -5.4554521953       -0.9779673381
 C       -14.6425919959       -6.9556824245       -0.8146432624
 C       -15.0526203959       -7.7798026903       -2.0794695631
 O       -16.0507546807       -7.4759054416       -2.7050112343
 C       -14.3235426804       -9.1354183115       -2.4393900746
 C       -12.8093170096       -8.6597031480       -2.8478944803
 O       -12.7558031078       -7.4831666879       -3.2367654251
 C       -11.6227770216       -9.6552056878       -2.7882170743
 C       -10.4284934039       -9.1190237152       -3.6177518442
 C        -9.0981991118       -9.8521954799       -3.2032788722
 O        -9.0602888714      -10.5491148847       -2.2102681511
 C        -7.7404999569       -9.6841612585       -4.0695633651
 C        -7.6992351118       -8.3750244439       -4.9301126330
 O        -8.3604766965       -7.3532923868       -4.7089692310
 C        -6.7134743436       -8.4410671579       -6.1278625824
 C        -6.0872747204       -7.2048608206       -6.5802873335
 C        -7.2523994723       -6.2480055922       -7.2545003820
 O        -8.3158810319       -6.7101646876       -7.5072610786
 C        -6.8551783397       -4.8265575926       -7.6188611462
 C        -5.5323098269       -4.6651872449       -8.5444613920
 O        -4.6534781391       -3.9567146734       -8.1308761707
 C        -5.6354605627       -5.2375185654       -9.9971409435
 C        -5.3078222754       -4.2216850039      -11.1028680607
 C        -5.6573503203       -4.5978813068      -12.5944918052
 O        -6.2659609333       -5.6410295714      -12.8189159363
 C        -5.1320999897       -3.6322050385      -13.8083865079
 C        -4.2941237073       -2.5163082664      -13.1582793546
 O        -4.7586745129       -1.8568450810      -12.2524913221
 C        -2.7796623194       -2.2254018506      -13.6636574992
 C        -1.6621370959       -2.6052037821      -12.6056839255
 C        -0.2926948498       -1.8397088086      -12.9083263447
 O        -0.1204747023       -0.9797984758      -13.7421230934
 C         0.9420820688       -2.2724339337      -12.1380411652
 C         2.0526691600       -1.1328226902      -12.3262390408
 O         3.0745837736       -1.3734780457      -12.9313827669
 C         1.8159846894        0.1490454035      -11.6480489088
 C         3.1789559159        0.7458331191      -11.1090403487
 C         3.0707661198        1.9892828945      -10.2597821038
 O         1.9267846042        2.2679760397       -9.9151441031
 C         4.4380852322        2.7480744123      -10.0073984437
 C         4.7111504873        3.4284010741      -11.3009059225
 O         5.5202555120        2.9658758459      -12.1435052737
 C         3.7072367728        4.5671054753      -11.6079412743
 C         4.3912166772        6.0890974329      -11.4716817803
 C         5.5628927645        6.2307285248      -12.4402172129
 O         5.6863503858        5.5766855897      -13.4370586699
 C         6.6130420298        7.4378547485      -12.2149286236
 C         7.5533493750        7.7008222182      -13.3968442712
 O         7.5276337488        8.7186215234      -14.0188892539
 C         8.4685233490        6.4985916524      -13.8059087798
 C         9.1423688149        6.7522693865      -15.0944663944
 C         8.2168203077        6.3330135202      -16.2600462681
 O         7.3042225891        5.5776447488      -16.0820022393
 C         8.5200111556        6.6987791035      -17.7806969229
 C         8.9351568542        5.4333474658      -18.6289567262
 O         9.8879306617        4.8063096306      -18.2453486293
 C         8.3035679362        5.2627461283      -20.1120264871
 C         9.0272833650        4.1253968078      -20.8826239363
 C         8.0500218958        2.9246920645      -20.9489576688
 O         6.8359258306        3.0011844554      -21.1915562475
 C         8.6883949929        1.4531843092      -20.7852251187
 C         9.1404865615        1.3532973522      -19.4192463450
 O        10.3243488461        1.4410612084      -19.1202653464
 C         7.9483772072        1.1214753479      -18.2611112746
 C         8.4544141100        0.4894548129      -16.8935100083
 C         7.4430064950        0.9911421726      -15.8339030324
 O         7.8357295435        1.9956243208      -15.2468045855
 C         6.0617314513        0.3798315077      -15.7157798114
 C         5.0646472201        1.3839246739      -16.4775706728
 O         4.7553506302        2.5023223824      -16.1758721548
 C         4.3502569961        0.7928699434      -17.7196181669
 C         5.9822486577       -1.0498231275      -16.2197392360
 C         5.6756489187        0.2834502800      -14.2074892074
 C         7.5505311057        0.4543871013      -21.0123057138
 C         9.8240201243        1.2840895319      -21.8492469678
 C         7.3018108655        7.5001518883      -18.3607474160
 C         9.8532581382        7.5337760312      -17.8849676938
 C         5.9076232559        8.7698825136      -11.8483364256
 C         7.4999613117        6.9356395048      -10.9659011000
 C         4.2501540050        3.8515670947       -8.8449036043
 C         5.6092787191        1.7109861021       -9.5371184562
 C         0.6431030741       -2.3964742406      -10.6136211069
 C         1.4579116004       -3.6339643510      -12.5920191634
 C        -4.3968318722       -4.4987067078      -14.7274302598
 C        -6.3933306231       -3.0042482341      -14.4504821160
 C        -8.1189956072       -4.1885798325       -8.3026311336
 C        -6.6037275669       -4.1546183597       -6.1659715927
 C        -6.4667140763       -9.6513990726       -3.1320564628
 C        -7.6326783879      -10.8838560415       -5.0451887488
 C       -14.3826580392      -10.0593568048       -1.1453383328
 C       -14.9660664802       -9.7471668913       -3.6680277904
 C       -15.3449502766       -3.4005172566       -2.9461391261
 C       -16.0178065384       -2.3738640636       -0.6135716360
 C       -22.3976805891       -4.1772536314       -3.7630606771
 C       -22.2485366807       -6.5500393117       -2.5079640698
 H       -20.0224244691       -4.9662575738       -6.1957437566
 H       -21.9831672137       -5.1009295313       -5.9661988168
 H       -21.0324760596       -6.3738909422       -6.5093874209
 H       -20.9582167340       -3.2661012214       -0.6674334142
 H       -20.6951350673       -2.6468215046       -2.3428456946
 H       -18.5660452989       -3.6079939710       -0.2270140048
 H       -18.7448112817       -1.9969931525       -0.8271587633
 H       -14.1095828612       -4.9810807172       -0.1895565842
 H       -14.2087158256       -5.1712136696       -1.8471281738
 H       -15.3187007965       -7.1866706022        0.0201242188
 H       -13.5515421973       -7.1040168972       -0.4767120768
 H       -12.0972339498      -10.5361254419       -3.0723149193
 H       -11.2316777501       -9.7424682769       -1.7621157709
 H       -10.2618008645       -8.0047264588       -3.6498117961
 H       -10.5496714666       -9.3581091846       -4.6857084847
 H        -7.2653757592       -8.9566497506       -6.9013082661
 H        -5.9485707608       -9.1566365432       -5.8242813010
 H        -5.3475178652       -7.3512856851       -7.2638998068
 H        -5.7426863844       -6.6278428564       -5.7335167183
 H        -6.6416005307       -5.6969669449      -10.1940529869
 H        -5.0128765251       -6.0711459249      -10.0153645839
 H        -4.2650681804       -3.7068744816      -11.0088543648
 H        -5.9955743825       -3.3868166984      -10.9966389934
 H        -2.7149957203       -1.1891529612      -13.9925116324
 H        -2.5968118921       -2.7260141822      -14.6396148086
 H        -1.6766397697       -3.6823783408      -12.7229078842
 H        -2.0250562066       -2.2770196112      -11.5273407905
 H         0.9218901328        0.2579464754      -11.0133050447
 H         1.5351521746        0.8221501135      -12.5176692615
 H         3.8824034064        1.0146366227      -11.9549612583
 H         3.7028956836        0.0329977200      -10.5537875672
 H         2.9042997389        4.4196969180      -10.9822883119
 H         3.4189192427        4.6240913116      -12.6622037523
 H         4.7808954431        6.2326366425      -10.4131052887
 H         3.6347236265        6.8677147031      -11.7969647771
 H         7.7148473657        5.6739469076      -13.7956776209
 H         9.2041299149        6.2850589298      -13.0149840786
 H        10.0209651612        6.3095770356      -15.2994212401
 H         9.1494243798        7.9157071926      -15.2669525512
 H         8.4848015046        6.2402817027      -20.5221701467
 H         7.2143374002        5.0608853123      -19.9874362040
 H         9.8050015265        3.7469915336      -20.3200297884
 H         9.3574588921        4.3612217656      -21.9088775185
 H         7.1589530341        0.4285335053      -18.6821129013
 H         7.5952695703        2.1240721810      -18.0771479821
 H         9.4664311113        0.8736369492      -16.6587623559
 H         8.3965911541       -0.6387233337      -17.0905046093
 H         5.0838155655        0.1913147281      -18.2655266190
 H         4.1628065277        1.6202382696      -18.3034194934
 H         3.4322664892        0.2621936252      -17.7792233706
 H         4.9941870115       -1.4196146682      -16.1363351166
 H         6.6139516321       -1.8137225789      -15.6587135314
 H         6.2140329703       -1.1030898764      -17.3167093694
 H         4.6472079532        0.2496237576      -14.0326400619
 H         5.9918720454        1.2549547127      -13.7694110791
 H         6.4043503327       -0.3545059888      -13.6722764882
 H         7.6354276863       -0.3637526397      -20.3361301910
 H         7.4816023106        0.1906845940      -22.0781150293
 H         6.5623642498        0.8754023995      -20.9336883601
 H        10.1344927010        0.2748102195      -21.9767674823
 H        10.6537609431        1.7541736849      -21.3109365134
 H         9.5398180512        1.7102406880      -22.7992463013
 H         7.1518711803        8.4283439709      -17.8564886228
 H         6.4241723713        6.9207170794      -18.1193098899
 H         7.3326807268        7.5677877967      -19.4376450262
 H        10.5963838076        6.8555767901      -17.2911122696
 H         9.8222112543        8.4859641347      -17.3618515555
 H        10.0973633661        7.5685469424      -18.9201865692
 H         6.7015040864        9.4552720423      -11.5290848065
 H         5.1099108099        8.6577818236      -11.1023662841
 H         5.3935235713        9.1419939402      -12.7686625244
 H         6.7669943437        6.5316106042      -10.3190043909
 H         7.9782100929        7.7795924700      -10.3722369676
 H         8.1698794860        6.1437583436      -11.2069841681
 H         4.7542288917        4.7654357235       -9.2140717348
 H         4.8305191598        3.4933848730       -7.9672522249
 H         3.1513190354        3.9362240649       -8.6444994517
 H         6.2199441902        1.8954554941       -8.6428002365
 H         6.2213033509        1.4090720793      -10.3858326234
 H         5.0996749439        0.7903799248       -9.2152428112
 H        -0.0550167812       -1.6449951618      -10.3266055537
 H         1.5171062690       -2.2598873287       -9.9434040272
 H         0.1797314219       -3.3623252453      -10.3656875892
 H         0.6924744180       -4.3531252036      -12.7106543454
 H         2.2208684513       -3.9720212572      -11.9455083412
 H         1.8578452749       -3.5436245124      -13.5703549134
 H        -3.8972573371       -3.9331756746      -15.5245083974
 H        -5.0100869292       -5.3684800810      -15.1209660880
 H        -3.4687998802       -4.8684719516      -14.2659133529
 H        -5.9875238825       -2.3325149545      -15.2772061297
 H        -7.0463986670       -2.5358323285      -13.7085215727
 H        -6.9437371625       -3.8406580311      -14.8725344047
 H        -8.4046597567       -4.7573757987       -9.1294881391
 H        -7.9560686535       -3.2796358481       -8.7870949910
 H        -8.9019189525       -4.0521426379       -7.6250592111
 H        -7.5168918161       -3.7722353022       -5.6606524154
 H        -5.9366174846       -3.3280610173       -6.2897112634
 H        -6.1639290921       -4.9015872713       -5.4777682623
 H        -6.5043855759      -10.3949399761       -2.3655741867
 H        -6.3710144625       -8.6643920262       -2.7069313180
 H        -5.5346403824       -9.8167180778       -3.6685931932
 H        -7.6258464094      -11.8655663719       -4.4694991843
 H        -6.6592788245      -10.9956561813       -5.5120332832
 H        -8.3380560375      -10.9967367694       -5.8622853319
 H       -14.2866746731       -9.4445129559       -0.2471747491
 H       -13.6724573711      -10.8610234392       -1.1402917630
 H       -15.3432265023      -10.5590536547       -1.0378012173
 H       -14.8461083095       -9.2143416895       -4.6625583090
 H       -16.0954113238       -9.8273607336       -3.5492505365
 H       -14.6034438241      -10.8024195965       -3.8743150212
 H       -15.4345892610       -4.3062157400       -3.4869487556
 H       -14.3351046481       -3.4322907163       -2.4966065010
 H       -15.6490796417       -2.4714442611       -3.5412958356
 H       -16.5234881450       -2.4836124084        0.3978098162
 H       -16.3730192921       -1.4975725569       -1.0155342483
 H       -14.9356421838       -2.2284002811       -0.3308351824
 H       -21.8960072327       -3.4572705203       -4.4421408478
 H       -22.8791241389       -3.6664110438       -2.8983689736
 H       -23.1371002350       -4.7076654050       -4.4577408295
 H       -23.0224766144       -6.1134717275       -1.8399637964
 H       -21.6043122379       -7.1290592224       -1.8476397232
 H       -22.6505181764       -7.1872425901       -3.2223511017
 Na      -18.0652914987       -6.4138573580       -2.5699020573
 Na        6.2382599832        3.7419731297      -14.7035831812
