232

 C        -6.4901578684        4.6378115257      -22.1426719106
 C        -6.3409203008        3.2947703388      -21.4186073894
 O        -6.5611648886        3.0117766657      -20.2908415159
 C        -6.1824659528        2.1041414062      -22.4814717992
 C        -7.6756388902        1.5647884400      -22.6172720492
 O        -8.0945651723        0.9787383063      -21.6733960124
 C        -8.4580658734        1.8457180415      -23.9129402301
 C        -9.9377131759        1.4374372006      -23.8969917054
 C       -10.6826300876        2.0846538129      -22.6528700019
 O       -10.3266263557        3.1955107810      -22.3568517783
 C       -11.9738499453        1.4003080781      -22.1003106361
 C       -11.5049248705        0.3220661485      -21.1889900046
 O       -10.8583131292       -0.5896767161      -21.5890841805
 C       -11.8930796846        0.5301214403      -19.7384032919
 C       -11.3096016789       -0.4554049103      -18.7591801381
 C        -9.8103822983       -0.4127657394      -18.4303257134
 O        -9.2943996898        0.6892129523      -18.2201296553
 C        -9.0058234418       -1.8083153382      -18.2973225941
 C        -7.4949490684       -1.6156315113      -18.2686967061
 O        -7.0323744055       -1.2581384338      -19.3438874038
 C        -6.6228707865       -1.8719909219      -16.9591495710
 C        -5.2894267126       -1.2393273793      -16.8917252867
 C        -5.1218811575        0.3811728833      -17.0151682688
 O        -5.9324620042        1.0704427371      -17.5907160614
 C        -3.6990381449        0.8054121814      -16.3802546866
 C        -4.0791004157        1.0414886881      -14.8211386487
 O        -4.0866810715        0.0398575420      -14.0995097846
 C        -4.2592852297        2.4740250214      -14.3988106346
 C        -4.4720950228        2.8128740220      -12.9704485132
 C        -3.3692756474        2.2941158802      -12.0556065947
 O        -2.2349514869        2.5796576307      -12.3303474630
 C        -3.6949466721        1.4857626438      -10.8044484072
 C        -2.7467392697        0.3635241891      -10.4667544667
 O        -2.4917511644        0.1950573838       -9.2796620198
 C        -2.4399613988       -0.6618027828      -11.5946051834
 C        -1.4141325268       -1.8193145021      -11.2051855145
 C        -2.1617842985       -2.9565315297      -10.3992295493
 O        -3.2478879549       -2.8111536307       -9.9751567148
 C        -1.2555865142       -4.2201140456       -9.8130993968
 C        -0.0648393677       -3.6513870216       -9.1081076780
 O        -0.0514137481       -2.5265825036       -8.7230623479
 C         1.3005379930       -4.5097368258       -8.9779658491
 C         2.3326984593       -4.0249930350       -7.9684855721
 C         2.7933841092       -4.8696412492       -6.7505791319
 O         2.6462889273       -6.0846161534       -6.6343338055
 C         3.8425385129       -4.3490501866       -5.7112833806
 C         3.7564615820       -2.7753683365       -5.5785496446
 O         4.4541300296       -2.0652015460       -6.2713282527
 C         2.6665810348       -2.0198123307       -4.5768936102
 C         2.7625362073       -0.5086085246       -4.8819878688
 C         1.7162547858       -0.1471069050       -5.9034150195
 O         0.6849648488       -0.8935100920       -5.9699066977
 C         1.8844932254        1.0618603791       -6.9339257151
 C         0.5216257250        1.9323980166       -6.9786606272
 O        -0.4981101656        1.3363396142       -7.3517561442
 C         0.6272919142        3.3748138093       -6.5877785236
 C        -0.6799688757        3.8156488174       -6.0013450102
 C        -0.9304107353        3.0789915368       -4.7013707507
 O        -0.0659133979        2.2962822575       -4.4198283239
 C        -2.1299055094        3.4418405208       -3.8854697598
 C        -3.1579802872        2.3248903301       -4.2336250147
 O        -4.3210225126        2.5726132015       -4.4346303430
 C        -2.6475692740        0.9111411497       -4.2417384268
 C        -3.7486956087       -0.0842161359       -4.4418191093
 C        -3.3232321166       -1.5180714190       -4.7547923829
 O        -2.4032896822       -1.7134758259       -5.5911994925
 C        -4.0027252574       -2.6488696705       -3.9783672812
 C        -3.0315244930       -3.1238285747       -2.6498452531
 O        -3.6040193166       -3.1911370317       -1.5919089215
 C        -1.5675310491       -3.4378861727       -2.7203019374
 C        -1.3814379560       -4.7476006511       -1.9887634949
 C         0.0554630275       -5.1674106691       -1.6578007400
 O         1.0509513849       -4.5380769075       -1.7227341996
 C         0.2396758857       -6.7498368777       -1.4562410736
 C        -0.7031921035       -7.1112526785       -0.2152932319
 O        -1.8595537704       -6.7486675232       -0.3541830191
 C        -0.1406952352       -7.5199947306        1.0884325195
 C        -1.2703582594       -8.2786115307        1.8850912285
 C        -1.3580061050       -9.7933933546        1.4843755856
 O        -0.4553698365      -10.2870296724        0.9064344440
 C        -2.4710064873      -10.7552423142        2.0726847559
 C        -3.0572331478      -11.2847556431        0.7756781811
 O        -3.9584644440      -10.6386940291        0.2618692942
 C        -2.3394347582      -12.4276220108        0.0731823380
 C        -1.9109368260      -11.7742971316        2.9791820165
 C        -3.4955830004       -9.8125325097        2.8419196827
 C        -0.1501535570       -7.5093398651       -2.8158566348
 C         1.7237041562       -7.2777391027       -1.2198738922
 C        -5.4060665721       -2.3365222746       -3.3925492052
 C        -4.0036444552       -3.8877700471       -4.8549687092
 C        -1.7700345159        3.4361826202       -2.3689535793
 C        -2.6695509173        4.8544031826       -4.0743084996
 C         3.1380188234        1.9347070435       -6.6572251901
 C         1.9263893890        0.3253613081       -8.4511916943
 C         3.5098009634       -5.0107486801       -4.3612382937
 C         5.2811978999       -4.7740804735       -6.1850495603
 C        -2.1821566227       -4.9253416052       -8.7506503020
 C        -1.0145202737       -5.1676295139      -11.0498569340
 C        -3.8568124398        2.4032942356       -9.5599697477
 C        -5.1608810632        0.8046834943      -11.0119973578
 C        -2.6767515947       -0.3865370934      -16.3677373049
 C        -3.2231059836        2.1506006871      -17.0443132917
 C        -9.5755646895       -2.3786149574      -16.9165944923
 C        -9.2658355645       -2.7825557747      -19.4115421373
 C       -13.0318762053        2.4371164723      -21.5510639512
 C       -12.8308620843        0.7304348616      -23.2670320441
 C        -5.3672743193        2.4097627395      -23.8191032317
 C        -5.3531916730        1.0615078749      -21.7232873374
 H        -7.4817008754        4.9034017945      -22.3735080194
 H        -6.0631339188        4.7067502375      -23.0802587464
 H        -5.9803544868        5.3268282315      -21.4657278269
 H        -7.9094400577        1.1941023403      -24.6373042885
 H        -8.1739827843        2.8996696855      -24.1083917660
 H        -9.9812286056        0.3416259025      -23.9255602786
 H       -10.4290446189        1.8484751230      -24.8022510932
 H       -12.9909347628        0.5369988239      -19.6986601863
 H       -11.7578390667        1.5671876504      -19.4336040787
 H       -11.4827532824       -1.5160461744      -18.9924722758
 H       -11.7864316990       -0.3462524480      -17.7665203084
 H        -6.4447856933       -2.9601874991      -16.7940237259
 H        -7.2437712921       -1.7483081808      -16.1160717115
 H        -4.4568504943       -1.6301543945      -17.5191952834
 H        -4.9640250277       -1.3530228968      -15.8885870242
 H        -5.0831125767        3.0017954408      -14.9629392885
 H        -3.3214139344        2.9519229964      -14.7022801494
 H        -5.4582045527        2.4423795150      -12.6376590453
 H        -4.4413509595        3.8970312518      -12.9180132248
 H        -2.1013044500       -0.1035610016      -12.5012316236
 H        -3.4668716746       -0.9895260366      -11.8632182751
 H        -0.7195928025       -1.4192444949      -10.4746679404
 H        -0.8600616770       -2.1534499882      -12.1302366352
 H         1.6587992901       -4.5409837342       -9.9410959582
 H         0.8564278455       -5.5597862344       -8.6821127617
 H         1.7986339600       -3.1402944937       -7.5977598669
 H         3.2469289114       -3.8381235392       -8.5626699509
 H         2.7674091646       -2.3524769746       -3.5517835278
 H         1.7593587153       -2.5549138344       -4.8517342675
 H         3.8056668340       -0.3713862596       -5.1889360443
 H         2.5774349838        0.0770686284       -3.9643223532
 H         0.9164142633        3.9632014155       -7.4701308756
 H         1.5041353013        3.5476306709       -5.8850852278
 H        -1.4027625380        3.3496434212       -6.6983689628
 H        -0.8011876747        4.8631418183       -6.0599781384
 H        -2.1878796691        0.7268728467       -3.2802269692
 H        -1.8661145474        0.7941497070       -4.9839588085
 H        -4.4251414335        0.3214952948       -5.1568934806
 H        -4.2605683822       -0.0444179836       -3.4737871473
 H        -0.9707637995       -2.6949764026       -2.1697767628
 H        -1.1064085081       -3.4857354235       -3.7372750730
 H        -1.8675311238       -5.5454584575       -2.4593583170
 H        -1.8807918391       -4.5908204663       -0.9972558117
 H         0.1820909284       -6.5565214754        1.5204385047
 H         0.7796331720       -8.0889574566        0.8582881681
 H        -2.2701580282       -7.7165287558        1.8181738182
 H        -0.8811657446       -8.0916214499        2.9262250236
 H        -2.7406133304      -13.3893128651        0.3679842692
 H        -1.2732520002      -12.4186976634        0.2286125324
 H        -2.5359087946      -12.3179334816       -0.9823841916
 H        -2.5505447056      -12.6148702847        3.0575433553
 H        -1.7353509382      -11.3310187706        3.9623716690
 H        -0.9134338718      -12.0950355969        2.6094600574
 H        -4.0924625973      -10.4627457097        3.4862436481
 H        -4.0829139650       -9.4368254929        2.0325208701
 H        -2.9144874449       -9.1866586871        3.4740319833
 H         0.0913772832       -8.5732863397       -2.7364400089
 H         0.4365488975       -6.9652819150       -3.4382544830
 H        -1.2058110931       -7.3761599864       -3.1461513096
 H         2.1932253801       -7.0440620952       -2.2227243574
 H         1.9566597542       -8.2964155047       -0.9630681560
 H         2.3898841924       -6.6931374967       -0.5527892047
 H        -5.3223316770       -2.1275829579       -2.2929866173
 H        -6.0954830879       -3.2169760979       -3.4594274446
 H        -5.8691177501       -1.5309166388       -3.8686024554
 H        -3.6748204303       -4.7985348660       -4.3651950597
 H        -3.3471482614       -3.8447808518       -5.6980735973
 H        -5.0275752912       -4.0371758850       -5.1311681671
 H        -2.5755462588        3.7358692263       -1.6575290499
 H        -0.8706958352        4.0174156073       -2.0869291394
 H        -1.5609203285        2.4073853661       -2.1102583838
 H        -2.9688344621        5.0690956853       -5.0758570478
 H        -1.8496603633        5.6027795098       -3.8465172064
 H        -3.5504083652        5.0891267578       -3.3889426714
 H         3.0261648109        2.9229286432       -7.1808495350
 H         3.9177347837        1.2725560058       -6.9495784892
 H         3.2580625332        1.9084840046       -5.5879750217
 H         1.0951345002       -0.3272601073       -8.5258624678
 H         2.9684053065       -0.0924665664       -8.6384415180
 H         1.7138124707        1.0378396803       -9.2720717236
 H         3.7536539379       -6.0676543702       -4.2320651626
 H         2.4212508677       -4.8283278829       -4.3002164744
 H         4.0069071228       -4.5404013735       -3.5409600187
 H         5.1645736719       -5.5390418149       -7.0544072720
 H         5.8341739426       -5.3249315390       -5.5452639136
 H         5.8736313787       -4.0122118172       -6.6447935664
 H        -1.8014069064       -5.8333343124       -8.4742468312
 H        -3.1395692460       -5.2574926428       -9.1492603526
 H        -2.2405930800       -4.2736421366       -7.8484313041
 H        -0.6577593643       -6.1471678941      -10.7342896227
 H        -0.2658340766       -4.6675577488      -11.6121619788
 H        -1.9823034147       -5.3841975002      -11.5365988638
 H        -3.1642512818        3.2370448587       -9.4378993158
 H        -3.6754092627        1.8028773000       -8.6594320859
 H        -4.8709847776        2.8869968729       -9.5436430526
 H        -5.2845424722        0.0839260789      -10.2280461343
 H        -5.2233572822        0.2381481276      -11.9392622549
 H        -5.9312543358        1.5033659248      -10.9242322107
 H        -1.9460260998       -0.2666960796      -15.4904927352
 H        -2.0901277397       -0.2780727865      -17.2608825302
 H        -3.1054330089       -1.3365254482      -16.2127001645
 H        -2.2805285008        2.4272616994      -16.5949651296
 H        -4.1196990407        2.7571219476      -17.0491621612
 H        -3.0055356348        1.8251472618      -18.1084642753
 H        -8.9772119557       -3.2096706052      -16.6492743369
 H       -10.6487866854       -2.8295175172      -16.9218866349
 H        -9.4896270847       -1.6359435386      -16.1442449550
 H        -8.5617625023       -3.6870993233      -19.2486781362
 H        -9.1039669355       -2.3772882068      -20.3444350245
 H       -10.3612087502       -3.0232158682      -19.3168509008
 H       -13.2014186768        3.1854361746      -22.3856225018
 H       -12.6755452503        3.0061180926      -20.6613171616
 H       -13.8777669255        1.8970813536      -21.2608563712
 H       -13.4623433235        1.4431248638      -23.7218616405
 H       -13.4534576426       -0.1173108984      -22.8627954610
 H       -12.2255342822        0.1409736933      -23.9379116912
 H        -5.4061537013        1.4946326550      -24.4542746154
 H        -4.2987271484        2.4486637781      -23.4099407342
 H        -5.5507457915        3.2634375950      -24.4518697537
 H        -5.6664951939        0.5127524933      -20.8380673800
 H        -4.3367211696        1.4724497382      -21.4279547985
 H        -5.1909681159        0.2657410541      -22.4107385722
 Na       -7.3707461921        1.0308548489      -19.5731621905
 Na       -1.4789404603       -0.7291783222       -7.4273422271
