232

 C        -6.6970630022        4.6857107568      -21.9752468304
 C        -6.3744923422        3.2979174872      -21.4662654335
 O        -6.6288785886        3.1449501306      -20.2851561437
 C        -6.0482913645        2.0172979613      -22.3732579468
 C        -7.6221147564        1.5379726665      -22.6485806573
 O        -8.2414052883        1.0677565784      -21.7054314582
 C        -8.4726410233        1.7818871289      -23.9537141594
 C        -9.8794802337        1.2708868769      -23.8119141778
 C       -10.8194853130        2.1696207880      -22.7807853675
 O       -10.2857428302        3.0956611720      -22.1603601739
 C       -12.0813508629        1.4609587512      -22.2597394350
 C       -11.6016571932        0.3669623435      -21.1602551681
 O       -10.8952559257       -0.5476643144      -21.4939941065
 C       -11.9368118256        0.4787433733      -19.5923503264
 C       -11.3862898809       -0.5833171764      -18.7098678873
 C        -9.8051197372       -0.4111238257      -18.4682277743
 O        -9.3247993748        0.6418035747      -18.1803698629
 C        -9.0557802796       -1.7886325337      -18.2799009937
 C        -7.5209211690       -1.5152333423      -18.2330143335
 O        -6.7796397892       -1.2089332472      -19.1648831451
 C        -6.8323175882       -1.7763110240      -16.9055991722
 C        -5.3865533672       -1.2732325710      -16.9246162119
 C        -5.1214341525        0.2725759913      -17.0987585798
 O        -5.9074283403        1.0777597251      -17.5232450967
 C        -3.8205235232        0.7862059417      -16.4077345283
 C        -4.1151713544        1.0127550325      -14.8495391014
 O        -4.3256971247        0.1150098699      -14.0711339130
 C        -4.1378378427        2.5239657939      -14.4150788831
 C        -4.3995273668        2.8605684808      -12.9014477180
 C        -3.2138773102        2.2570741028      -12.0264590679
 O        -2.0621669766        2.4471756965      -12.3022687343
 C        -3.7067152473        1.4015218905      -10.7768577216
 C        -2.7333180982        0.1817225735      -10.4204625441
 O        -2.3424974931        0.0490892751       -9.3046076367
 C        -2.3284762289       -0.7981805849      -11.5231666136
 C        -1.2979317661       -1.8719658392      -11.1631880741
 C        -2.0319898661       -2.8957875450      -10.2677261141
 O        -3.2085650471       -2.7397330030      -10.0257357982
 C        -1.2402444250       -4.1654135392       -9.8346408541
 C         0.0088699789       -3.6213088342       -9.1462862067
 O         0.0515902781       -2.4753622938       -8.7747500552
 C         1.3500113149       -4.5071962240       -8.9101732987
 C         2.3346914917       -3.9598891967       -7.9295399804
 C         2.9054441072       -4.9945951351       -6.8131870749
 O         2.5485038508       -6.1365482119       -6.7914343800
 C         3.8108855702       -4.3305700780       -5.7004119515
 C         3.6752818432       -2.7780255852       -5.6137709625
 O         4.4427905714       -2.0843300356       -6.2498952687
 C         2.7087518053       -2.1596465842       -4.6801370647
 C         2.5631182495       -0.6289290774       -4.8861634367
 C         1.6544096833       -0.2644589362       -6.0469181724
 O         0.6597066890       -0.9015804237       -6.3009015596
 C         1.8794243781        1.0322879760       -6.9121367410
 C         0.5265934830        1.9281225987       -6.9130187939
 O        -0.5810098536        1.5049723543       -7.2467821452
 C         0.5931295402        3.4148871282       -6.7963945938
 C        -0.7391373831        3.8828936191       -6.1285939686
 C        -0.8507642938        3.2128105805       -4.6745579399
 O        -0.1119359800        2.3069289631       -4.3247288608
 C        -2.0706469800        3.5432095002       -3.8852872088
 C        -3.2331588235        2.4291374816       -4.1753116480
 O        -4.3797232094        2.7338199181       -4.4000639503
 C        -2.7635903384        0.8780379884       -4.2951295156
 C        -3.9275107356       -0.1096882198       -4.4407271542
 C        -3.3557789428       -1.5261049895       -4.6725158134
 O        -2.3725646369       -1.7395783098       -5.3562458452
 C        -3.9977304107       -2.7346626587       -3.9263020327
 C        -3.0539059702       -2.9829440064       -2.6616415139
 O        -3.5622242206       -3.0024235978       -1.5763436997
 C        -1.5755074799       -3.5805360075       -2.8995595577
 C        -1.3302724018       -4.7344911552       -1.8959883531
 C         0.1086706902       -5.2677888530       -1.7827470396
 O         0.9844807849       -4.4258946299       -1.7686131439
 C         0.2700734527       -6.7294610074       -1.5924953183
 C        -0.8119529435       -7.1009892197       -0.2554231239
 O        -1.9541026075       -6.8443270325       -0.3888601536
 C        -0.1639182610       -7.5859681888        1.0575329814
 C        -1.2309250855       -8.3559091742        1.9074041084
 C        -1.1329448519       -9.7824723490        1.5698995397
 O        -0.2455066778      -10.3094151554        0.8251576092
 C        -2.3333543065      -10.6173696478        2.0298553702
 C        -3.0234750250      -11.2084782912        0.6663511594
 O        -4.1225577549      -10.8964594267        0.3329908984
 C        -2.2082702472      -12.2592896882       -0.0548314386
 C        -1.8095867781      -11.7756295380        2.9984103382
 C        -3.5884429831       -9.8144679934        2.6969156335
 C        -0.1754045759       -7.4615890210       -2.8391356430
 C         1.7326313966       -7.1127001938       -1.2992960665
 C        -5.4401803368       -2.4153295028       -3.4560827944
 C        -4.0346058607       -3.9720200019       -4.8674211528
 C        -1.6002179129        3.3460089814       -2.4283360264
 C        -2.6567660388        4.9805394960       -4.1824143143
 C         3.1474302291        1.8287222404       -6.5403039721
 C         1.9145825126        0.4967853525       -8.3358069607
 C         3.5370310095       -4.9255141654       -4.3455686862
 C         5.2720397565       -4.7715743338       -6.0860047520
 C        -2.1155548226       -4.8907419364       -8.7650794029
 C        -0.9777686797       -5.2142178172      -11.0319344167
 C        -3.8410478310        2.4227203751       -9.6008592519
 C        -5.0823646560        0.7548329890      -11.0301960183
 C        -2.6534904591       -0.2149842874      -16.5411524235
 C        -3.1528930551        2.0980168180      -16.9563283080
 C        -9.6490481342       -2.3836493853      -16.9210127013
 C        -9.3320488195       -2.8790927524      -19.4207005327
 C       -13.0334493994        2.5331312521      -21.6349445346
 C       -12.8552571034        0.7067124212      -23.4423946554
 C        -5.3682859440        2.4651658048      -23.6487487053
 C        -5.1961762609        0.9628531773      -21.6733855101
 H        -7.7194370686        4.7843062476      -22.2562215612
 H        -6.2341572380        4.8931128715      -22.9156794335
 H        -6.4041191820        5.3470225819      -21.2272132182
 H        -7.9591152910        1.1907990605      -24.6570134488
 H        -8.3619236874        2.8894720642      -24.1185288874
 H        -9.8365322746        0.1986974546      -23.4978720672
 H       -10.3806806386        1.3251181801      -24.8435702398
 H       -12.9886553683        0.5553464401      -19.4535890908
 H       -11.6375627929        1.4746052902      -19.2372932219
 H       -11.5522877909       -1.6217605666      -19.0600625263
 H       -11.8613490626       -0.5908007085      -17.7145571395
 H        -6.8809785063       -2.7947759967      -16.7005155681
 H        -7.5042653030       -1.4351215389      -16.1158244643
 H        -4.7398074119       -1.6287258910      -17.7127341808
 H        -4.9144069813       -1.4335999921      -15.9997492695
 H        -5.0031171789        3.0026629960      -14.9663245882
 H        -3.2544828565        3.0075955679      -14.7215515268
 H        -5.3372058476        2.4023398579      -12.6310548617
 H        -4.4038462504        3.9234312792      -12.7605566451
 H        -1.8443415792       -0.2479626295      -12.3408210205
 H        -3.2646707629       -1.0846853961      -11.8857593980
 H        -0.3611556325       -1.2607647733      -10.7758987008
 H        -1.0178042885       -2.4043060707      -12.1114852639
 H         1.7897979755       -4.6329280094       -9.9801224619
 H         0.9488767210       -5.5181229375       -8.5393477271
 H         1.7861110911       -3.1928413648       -7.4716283200
 H         3.1418034501       -3.6381976693       -8.5976615146
 H         3.0865899133       -2.3743306183       -3.6593268017
 H         1.8296777487       -2.7780101229       -4.6993247284
 H         3.6288711383       -0.2240100269       -4.9679898466
 H         2.1223400481       -0.2660149678       -3.9618473491
 H         0.9249625253        3.8357066882       -7.7496798154
 H         1.3943334253        3.8295882783       -6.0440010248
 H        -1.6553658858        3.7663366535       -6.6953105111
 H        -0.5271644076        5.0004268623       -5.9633953737
 H        -2.1282170074        0.5175021602       -3.4637711885
 H        -2.2331075798        0.8289541885       -5.1881464393
 H        -4.4705379473        0.1936128314       -5.3805246959
 H        -4.5814135449        0.0283965545       -3.5839223340
 H        -0.8248711459       -2.7733457297       -2.7984402607
 H        -1.4363749558       -3.9996661773       -3.9446821666
 H        -1.9244451675       -5.5876415073       -2.2803351985
 H        -1.7849272410       -4.4074770263       -0.9345360487
 H         0.2759946526       -6.6922968154        1.4796245093
 H         0.6495316304       -8.2013818309        0.7520728313
 H        -2.2962339129       -8.1331870571        1.5877649731
 H        -1.0718152580       -7.9905654205        2.9166522325
 H        -2.3453060062      -13.2596467473        0.4132232046
 H        -1.1921246860      -11.9983564994        0.0079358893
 H        -2.4929568617      -12.3479179402       -1.0860993594
 H        -2.6390529084      -12.3897872934        3.3234169311
 H        -1.2370717297      -11.4177019324        3.8261615552
 H        -1.1562183794      -12.3914741058        2.4230526838
 H        -4.3454841598      -10.5285485246        2.9621850486
 H        -3.9138423673       -9.2208707536        1.8899217598
 H        -3.1554719792       -9.3039969412        3.5480454140
 H         0.2829963621       -8.4227415826       -2.8054384638
 H         0.3349345904       -6.8343519358       -3.6611434904
 H        -1.2726208329       -7.5180728433       -2.9530644581
 H         2.3141904528       -6.8677898855       -2.1321564740
 H         2.1371904543       -8.0361686588       -0.9164534305
 H         2.0044837842       -6.3281277913       -0.5997297942
 H        -5.3437192399       -1.9730826864       -2.4349630022
 H        -6.0694071778       -3.2989632488       -3.3396144357
 H        -5.9735193493       -1.7298077535       -4.1113385725
 H        -3.9534967321       -4.8895164354       -4.1928969506
 H        -3.1482550657       -4.1242395891       -5.5849474001
 H        -5.0047283903       -4.0624719161       -5.3241515098
 H        -2.3971636714        3.5230031978       -1.6641160511
 H        -0.8170209592        4.0629783801       -2.2082216474
 H        -1.2371069733        2.3336129302       -2.2030295030
 H        -3.0354341401        4.9250745330       -5.2179425746
 H        -1.9489316831        5.7392241102       -4.2028919430
 H        -3.5287840899        5.2581207663       -3.5532168842
 H         3.2008552515        2.6257398789       -7.2156458320
 H         3.9895489153        1.1282740391       -6.4446196209
 H         2.9474965289        2.1085028767       -5.5605431963
 H         1.0686267276       -0.1725800845       -8.4919262080
 H         2.8939910522        0.1145755765       -8.5435634000
 H         1.7356233307        1.3161110235       -9.0303083610
 H         3.6216704982       -5.9761010397       -4.3816528315
 H         2.4807878603       -4.6716931170       -4.0897273692
 H         4.1806957111       -4.5557762093       -3.5552115576
 H         5.2327836258       -5.2883076273       -6.9679975786
 H         5.6961638111       -5.6320127725       -5.4899758941
 H         6.0215108833       -4.0091393160       -6.3098594050
 H        -1.5965930803       -5.7136776323       -8.2592106172
 H        -2.9298119027       -5.3981748767       -9.1596244569
 H        -2.3946925494       -4.1444142814       -8.0362860037
 H        -0.6635451407       -6.1234361146      -10.5506511814
 H        -0.0181478929       -4.7505202151      -11.5396093650
 H        -1.8293252149       -5.5384261807      -11.5891027627
 H        -3.0242821582        3.0681532098       -9.5097802306
 H        -3.8324027330        1.8692642293       -8.6349664186
 H        -4.7423359580        3.0720832894       -9.6962871867
 H        -5.3983588418        0.2484424539      -10.0990706768
 H        -4.9340399916       -0.0155177353      -11.7155261738
 H        -5.8653789666        1.4628654921      -11.3759402913
 H        -1.7884437307        0.1299309600      -15.9640316095
 H        -2.3219257269       -0.0349932673      -17.6092209525
 H        -2.8562289895       -1.2238143423      -16.1914571867
 H        -2.2167503012        2.1616970824      -16.2853424253
 H        -3.9365639237        2.8288895943      -16.9050604395
 H        -2.8071470059        1.9150615959      -17.9484239728
 H        -9.4483595323       -3.4259117082      -16.7785568909
 H       -10.7298591065       -2.3685878127      -17.0799764876
 H        -9.4915045859       -1.7188370866      -16.0173165534
 H        -8.6246389082       -3.6709507463      -19.1850226162
 H        -9.0907429839       -2.5116255651      -20.3931549539
 H       -10.3449834225       -3.1802198311      -19.4288916105
 H       -13.8087837067        2.8722084503      -22.3488630979
 H       -12.4507302651        3.4154997028      -21.3333320390
 H       -13.4265752346        2.0762353581      -20.6725737600
 H       -13.2140830030        1.3802815089      -24.2202713785
 H       -13.7956739001        0.1894046935      -23.0358927759
 H       -12.2996863853       -0.1142398419      -23.7563046346
 H        -5.1800548468        1.5443099387      -24.2197498838
 H        -4.3625545682        2.9005787286      -23.3578954348
 H        -5.8857297222        3.1536597346      -24.2683290226
 H        -5.5966847716        0.4561160904      -20.8221541929
 H        -4.2752159153        1.3771630477      -21.2608979246
 H        -4.9508201590        0.1398066634      -22.3792498083
 Na       -7.3776278812        0.9666504104      -19.3881641905
 Na       -1.4963131567       -0.7332255288       -7.4049257524
