232

 C        -6.8028805894        4.7196755958      -21.9130521184
 C        -6.5647273008        3.2831141740      -21.3932057738
 O        -6.6325874015        3.0850787530      -20.1521571085
 C        -6.1416705321        2.0230667085      -22.3700098534
 C        -7.5802403869        1.5071629628      -22.5678457987
 O        -8.2481466704        1.0688991428      -21.6125372427
 C        -8.3775515511        1.7344413600      -23.9234914440
 C        -9.8080166494        1.2314080547      -23.6630363151
 C       -10.6821746071        2.0094031379      -22.6981896573
 O       -10.3207606140        2.9889416595      -22.1432142908
 C       -12.1655317642        1.4038077130      -22.2348490178
 C       -11.6786875027        0.4435085194      -21.1258644362
 O       -10.9502205005       -0.5297543193      -21.4502529661
 C       -11.9724513812        0.6099739065      -19.6225586352
 C       -11.4423902575       -0.5682832281      -18.8020472937
 C        -9.9025504632       -0.5392750413      -18.5103362811
 O        -9.4141917025        0.5386581795      -18.2807058593
 C        -9.1195367588       -1.8190976490      -18.2518882777
 C        -7.5262202765       -1.5128774578      -18.1249453194
 O        -6.8390017916       -1.2121708793      -19.0908773316
 C        -6.8745913131       -1.5729052184      -16.7352864905
 C        -5.3926575492       -1.2972456896      -16.8429518832
 C        -5.0828198790        0.2286455090      -16.9502642688
 O        -5.8378014135        1.0400297497      -17.4898637691
 C        -3.7448391297        0.8516890685      -16.3315469419
 C        -4.1390871433        1.1048035427      -14.8321807626
 O        -4.5401870391        0.2178042198      -14.1149563773
 C        -4.0541839486        2.5686786680      -14.4559552596
 C        -4.2388890487        2.8608224154      -12.9260568026
 C        -3.1997726351        2.0861656019      -12.0534383891
 O        -1.9922264765        2.2666987616      -12.2196985332
 C        -3.7423963815        1.2673915109      -10.7626908395
 C        -2.6572444219        0.1376640963      -10.4220094652
 O        -2.2323158092       -0.0516303360       -9.2863512053
 C        -2.1863847946       -0.7312740464      -11.6585357339
 C        -1.3026450738       -1.8641307030      -11.2084604664
 C        -1.9954829310       -2.9153672310      -10.3400295543
 O        -3.1884949521       -2.7466977730       -9.9942247409
 C        -1.1204849326       -4.1122730936       -9.7475101585
 C         0.1701851326       -3.6291052635       -9.1188226813
 O         0.2079691379       -2.4500579262       -8.6752558148
 C         1.3268608544       -4.5936256345       -8.8330295013
 C         2.3358228980       -3.9073113452       -7.8151325241
 C         2.7994710763       -4.9601188758       -6.8669157898
 O         2.4473367189       -6.0977424008       -6.9833417637
 C         3.7801180797       -4.4031724407       -5.7373979020
 C         3.7693751933       -2.7980370284       -5.7105408592
 O         4.4774933526       -2.0530448788       -6.3600522482
 C         2.6353628439       -2.2176388762       -4.7189012810
 C         2.3311735708       -0.6959800137       -4.8782204910
 C         1.4249159195       -0.3460215457       -6.1062701868
 O         0.6140563625       -1.0970174236       -6.5101810156
 C         1.7493884020        1.0482536759       -6.9400502762
 C         0.5407479545        1.9247897697       -6.9181642392
 O        -0.5806471683        1.4392086443       -7.0832416372
 C         0.6615119072        3.5475353297       -6.8560769913
 C        -0.6127280130        4.0303379492       -6.0692982637
 C        -0.8924393463        3.2605148415       -4.7910329701
 O        -0.0623502666        2.4009722594       -4.4605803057
 C        -2.0997326616        3.4961192647       -3.8818047047
 C        -3.2641805066        2.4983262166       -4.1758990491
 O        -4.3876544009        2.8837670718       -4.3510494526
 C        -2.8309102980        1.0325778267       -4.3725996366
 C        -3.9865947005       -0.0920863396       -4.4527492091
 C        -3.3799627131       -1.4803422768       -4.6267060059
 O        -2.3712365203       -1.7071631053       -5.2584939816
 C        -4.0194769265       -2.7920656953       -3.8715525868
 C        -3.1330404854       -3.1040880898       -2.6922806515
 O        -3.3940806212       -2.7424294750       -1.5560106558
 C        -1.7693587314       -3.6535570753       -3.0467972613
 C        -1.4304773001       -4.6313224987       -1.9335317018
 C         0.0363179404       -5.1419694252       -1.8824663036
 O         1.0179195327       -4.3783487956       -1.8464496644
 C         0.2362133967       -6.6649486093       -1.5565070806
 C        -0.7070289954       -7.0790528358       -0.4318585325
 O        -1.9371958132       -7.0719070469       -0.4676647332
 C        -0.0303347201       -7.5491597856        0.9795143617
 C        -1.1088175498       -8.3001174230        1.8246766764
 C        -1.1301871627       -9.7574453103        1.5084172497
 O        -0.1315454228      -10.2698010678        0.9601185840
 C        -2.3809714969      -10.6420976184        1.8963013941
 C        -3.0004582160      -11.3226044316        0.6746030387
 O        -4.1796398296      -11.1284549193        0.3881800704
 C        -2.0982149671      -12.1825278658       -0.2315900469
 C        -1.8432052347      -11.7609936933        2.9324234728
 C        -3.4795589070       -9.8766843352        2.6529302824
 C        -0.3226462411       -7.5237490805       -2.8629134610
 C         1.7229807719       -6.8940945911       -1.2315494791
 C        -5.4736528837       -2.5029541893       -3.4761834110
 C        -4.0208158070       -4.0330925215       -4.8728358070
 C        -1.5928068557        3.3738281767       -2.3676248220
 C        -2.6936083979        4.9345977431       -4.1887576548
 C         3.0944325323        1.7547705081       -6.4168657113
 C         2.0153081568        0.6455556713       -8.4199218476
 C         3.4399472476       -4.9867319492       -4.2439591276
 C         5.3163313074       -4.7044216930       -6.0805548068
 C        -2.0210699513       -4.8929513392       -8.7325198832
 C        -0.8877281958       -5.0917432184      -10.9024290916
 C        -3.7612761224        2.3664685372       -9.6600150102
 C        -5.0671917040        0.5717247540      -10.9070192917
 C        -2.5352056015       -0.2580867942      -16.6215127657
 C        -3.2790493540        2.1352203759      -17.1090425245
 C        -9.6232504807       -2.3877998792      -17.0174665242
 C        -9.3493986523       -2.8520445343      -19.4411365487
 C       -13.0305284618        2.6287060252      -21.7207839407
 C       -12.8295609530        0.6796693542      -23.4426251838
 C        -5.4271736629        2.5537150248      -23.6331151592
 C        -5.2485036166        0.9760709314      -21.6650718310
 H        -7.7584838763        4.6555496581      -22.4587826160
 H        -6.1896287707        4.8459437654      -22.8339482412
 H        -6.7786013408        5.5134156752      -21.1795689379
 H        -7.8378681905        1.2208709920      -24.7463621729
 H        -8.3839641024        2.8319723969      -23.8937684663
 H        -9.7564030943        0.1770069328      -23.2815937800
 H       -10.4549175504        1.2099033362      -24.5612314663
 H       -13.0636850963        0.6010456625      -19.5101490892
 H       -11.7083370116        1.6187729386      -19.2808538291
 H       -11.6803464966       -1.5186297988      -19.2696162920
 H       -11.9498791523       -0.6610873258      -17.8337945830
 H        -7.1423781608       -2.5108422526      -16.2811684717
 H        -7.4949178482       -0.8915874885      -16.1201727258
 H        -5.0335105998       -1.5102463845      -17.8108800099
 H        -4.7240908840       -1.6733589677      -16.0286022848
 H        -4.7505704906        3.1584301629      -14.9943892271
 H        -3.0402443547        2.8817533838      -14.7454809105
 H        -5.2358264557        2.6812362359      -12.5709673511
 H        -3.8659080321        3.8766152989      -12.7543493938
 H        -1.6359854336       -0.1799531915      -12.3859297916
 H        -3.1822980652       -0.9821993067      -12.0480938512
 H        -0.4567917270       -1.3180531761      -10.7002787836
 H        -0.8904277637       -2.4256701967      -12.0756950227
 H         1.7665236464       -4.8424054034       -9.9022282760
 H         0.8715201466       -5.4498242858       -8.4241777770
 H         1.7806586044       -3.1040972621       -7.3618359424
 H         3.1432632806       -3.6284591412       -8.4507025086
 H         3.0453346590       -2.3595143518       -3.6983115581
 H         1.7186773711       -2.8696096079       -4.6813226065
 H         3.3060694178       -0.1661207726       -4.9110352426
 H         1.8306482501       -0.4439317872       -3.9258505188
 H         0.5287850278        3.8535745754       -7.9344155522
 H         1.5462329516        4.0349850426       -6.6129269631
 H        -1.4777603318        3.8749295842       -6.7638430283
 H        -0.5837009976        5.1412853551       -5.8493042822
 H        -2.2840095542        0.7471565752       -3.4679372105
 H        -2.1857467759        0.9828093483       -5.2777257511
 H        -4.6164669759        0.0745086542       -5.3822016842
 H        -4.6021275022        0.0360003112       -3.5568664714
 H        -1.1428368905       -2.7214263036       -2.9578727215
 H        -1.6584369464       -4.0512067574       -4.0500572954
 H        -2.1276989382       -5.5426979679       -1.9503241880
 H        -1.7102935401       -4.0251606741       -1.0762869410
 H         0.3054846365       -6.6571632025        1.4777586425
 H         0.8261493452       -8.1574180477        0.7959811678
 H        -2.0626105237       -7.8752690038        1.7459568097
 H        -0.7113151554       -8.0820643053        2.7940933183
 H        -1.8842241109      -13.1376943742        0.2437646676
 H        -1.1378327136      -11.6587507372       -0.3961790622
 H        -2.5596516878      -12.4269624605       -1.1865225511
 H        -2.6315567266      -12.2017966573        3.5564794351
 H        -1.0954176375      -11.3143492031        3.5480727286
 H        -1.3771986373      -12.5470938737        2.3940326868
 H        -4.3899086453      -10.4451693281        2.6801729846
 H        -3.5747684599       -8.9621639463        2.0588274565
 H        -2.9496617334       -9.6659216452        3.5795405639
 H         0.1098735204       -8.5867300119       -2.9046477349
 H        -0.0052480096       -6.9445819155       -3.8265446515
 H        -1.3813733450       -7.4955504630       -2.6951560928
 H         2.3861710680       -6.6010685432       -1.9952181112
 H         2.0107848062       -7.9398317635       -1.0284014002
 H         1.9924234723       -6.3194518117       -0.3760428631
 H        -5.5433021109       -1.7179349559       -2.7494737353
 H        -5.8636783890       -3.3849526815       -3.0108806940
 H        -6.1830814591       -2.3024989207       -4.3488518231
 H        -4.2907809239       -4.9440455980       -4.2481338043
 H        -2.9767591546       -4.2780105589       -5.1907155894
 H        -4.7618306700       -4.0396784065       -5.7405199406
 H        -2.4141571752        3.4072573592       -1.6734559217
 H        -0.9859745751        4.2452231360       -2.1599921612
 H        -1.0749269268        2.4426700159       -2.0810888219
 H        -3.1203449741        4.9142560342       -5.2119509265
 H        -1.8854400054        5.6761084350       -4.2376579489
 H        -3.4743717775        5.1546184473       -3.5435352368
 H         3.3089301094        2.4178412513       -7.2314018042
 H         3.8840693641        1.0643012697       -6.2414595403
 H         2.9159493772        2.3428764400       -5.5270882322
 H         1.1578315144        0.0911684020       -8.8847204349
 H         2.9281384903        0.1454784305       -8.4498993302
 H         2.1304728595        1.5587182928       -8.9743524005
 H         3.3766202080       -6.0723247853       -4.4012750973
 H         2.5329612217       -4.6754513556       -3.7816531855
 H         4.2637529861       -4.7797147670       -3.5095300296
 H         5.5988095867       -4.9640916942       -7.0806548406
 H         5.7159447200       -5.6046692121       -5.5263299772
 H         5.9136086266       -3.8189621967       -5.8509680548
 H        -1.4973376558       -5.6763538342       -8.1118573301
 H        -2.8173602216       -5.4701757112       -9.1833940017
 H        -2.4511177880       -4.1805209309       -8.0995807673
 H        -0.5559505709       -6.1077875311      -10.5348887823
 H        -0.1176481926       -4.6371028416      -11.5112658020
 H        -1.8513113681       -5.3728891868      -11.3683545753
 H        -2.7219481561        2.7581657617       -9.4983221108
 H        -4.0495132535        1.9638983020       -8.7052049718
 H        -4.3716515487        3.1852742053       -9.9086534857
 H        -5.2704528649       -0.0832640926      -10.0339186675
 H        -5.0014147985       -0.1115844519      -11.7870832093
 H        -5.8488566207        1.3721867372      -11.0769654134
 H        -1.5701973128        0.1526516420      -16.5018199184
 H        -2.5709679144       -0.4719454466      -17.7064049279
 H        -2.6566452355       -1.0961875181      -15.8704287750
 H        -2.3601886666        2.3755625758      -16.6135079224
 H        -4.1325242715        2.8198798137      -17.0342475341
 H        -3.0802546321        1.8593823735      -18.1088581609
 H        -9.4299836118       -3.4927350777      -16.8277750909
 H       -10.6505856672       -2.3405892686      -17.1065212085
 H        -9.4452000737       -1.6953565479      -16.1831409475
 H        -8.7308956999       -3.6329772927      -19.2789431352
 H        -9.0335650268       -2.3952499377      -20.4543000788
 H       -10.3525109487       -3.1396307055      -19.5467759258
 H       -13.9873665604        2.7566948098      -22.1775917900
 H       -12.4494411258        3.5446275113      -21.8819740857
 H       -13.0686939928        2.4849874742      -20.5992491637
 H       -12.6463334833        1.2405138938      -24.3999338237
 H       -13.8841968800        0.6218182976      -23.4268251790
 H       -12.4471150520       -0.3650870903      -23.4446444134
 H        -4.9996454498        1.7113877914      -24.1308398945
 H        -4.7059640828        3.2554563133      -23.4210957159
 H        -6.1460430738        3.0437906140      -24.3499810577
 H        -5.7281413812        0.5160945919      -20.7914104284
 H        -4.4413749517        1.4319772909      -21.1885259684
 H        -4.8995363904        0.1379624577      -22.2968535984
 Na       -7.3935010224        1.0307478285      -19.2789891599
 Na       -1.3817575018       -0.8012066717       -7.3270093643
