232

 C        -7.0278102703        4.8139004982      -21.5990899299
 C        -6.6664460842        3.4505751533      -21.1358366989
 O        -6.5657046759        3.3211071428      -19.8847241750
 C        -6.4143284619        2.2165725726      -22.0957948265
 C        -7.6476654790        1.2868490571      -22.2888650971
 O        -8.1415319807        0.6615688383      -21.3038673631
 C        -8.2903812119        1.3246175297      -23.7689652360
 C        -9.7209664309        0.9408792891      -23.5945445850
 C       -10.5940233595        1.9123890391      -22.6569964725
 O       -10.1881764743        2.9671408328      -22.2361107419
 C       -11.9972349992        1.4254589967      -22.2617830622
 C       -11.7933376099        0.3336980702      -21.1191506187
 O       -11.3273502575       -0.7557310284      -21.4546265457
 C       -12.0991394554        0.5754897866      -19.6042158963
 C       -11.6619210593       -0.5739635966      -18.6779472508
 C       -10.0685529316       -0.5052840673      -18.5303770513
 O        -9.5183673317        0.5329572219      -18.7114770554
 C        -9.2722286184       -1.8559561468      -18.1932753374
 C        -7.7870982767       -1.3888693052      -18.0024937136
 O        -7.0375961498       -1.2638287709      -18.9715110125
 C        -7.2414126557       -1.2519910222      -16.5272579786
 C        -5.7401894214       -1.1142402838      -16.4906592666
 C        -5.2009444423        0.2989112910      -16.9595485102
 O        -5.9359400247        1.0562641609      -17.5770899477
 C        -3.8139161033        0.9079712870      -16.4568935413
 C        -4.0907484549        1.3618398252      -15.0355646835
 O        -4.5800308569        0.5640526601      -14.2793621761
 C        -3.5401654864        2.6259007372      -14.3875033852
 C        -4.0917676112        2.6686160887      -12.9333439953
 C        -3.1259749846        1.8143447308      -12.0057153084
 O        -1.9781429628        1.8760830051      -12.4225814744
 C        -3.5381386099        1.0857759731      -10.7043820754
 C        -2.4167842725       -0.0640846844      -10.4317182908
 O        -2.0327170028       -0.2196819734       -9.2813022563
 C        -1.9827285820       -0.8025654187      -11.6496241816
 C        -1.1970510410       -2.0328550094      -11.3538134793
 C        -1.9189281219       -2.9739999610      -10.3627798903
 O        -3.1003373025       -2.7624658072      -10.0256204915
 C        -1.1597602955       -4.1548506568       -9.7063881462
 C         0.1792692872       -3.4726521051       -9.0382590474
 O         0.2770027713       -2.2597432217       -8.8249738126
 C         1.4534619800       -4.4141942606       -8.8139023304
 C         2.5304873919       -3.9411660021       -7.9213897361
 C         2.7973070110       -4.9443653492       -6.7934141848
 O         2.5012876560       -6.0902871273       -6.8508042675
 C         3.8412977345       -4.3273845186       -5.6048911710
 C         3.5469428776       -2.7994155004       -5.5137225922
 O         4.0283484373       -2.0050681114       -6.2964951001
 C         2.4652695745       -2.3082641594       -4.5976735780
 C         2.4132205086       -0.7583212024       -4.8571850891
 C         1.5668160489       -0.4164697754       -6.0988478647
 O         0.9031903410       -1.2394964981       -6.6267403298
 C         1.7421085828        1.0117166366       -6.7187289643
 C         0.4287268634        1.8026231698       -6.8648277898
 O        -0.6810732518        1.2779859609       -7.0024075196
 C         0.5149666214        3.3534083212       -6.9937699418
 C        -0.5832707125        4.0757487955       -6.1060581332
 C        -0.8376855820        3.3713380410       -4.7621112908
 O        -0.1436195303        2.4382019338       -4.3599908190
 C        -2.0770396775        3.6061100013       -3.9404606846
 C        -3.1795366502        2.5148412836       -4.2877536634
 O        -4.3729408962        2.7309743434       -4.3644756267
 C        -2.6566427300        1.0559436255       -4.4576732599
 C        -3.8243300814        0.0242094889       -4.3404399722
 C        -3.5293332344       -1.3744611474       -4.7418422232
 O        -2.7003001637       -1.4486831658       -5.6395108165
 C        -4.1970697441       -2.6029732310       -4.1034021553
 C        -3.1836290271       -2.7989681698       -2.7824233220
 O        -3.3880481241       -1.9913902973       -1.9161124247
 C        -1.8374727620       -3.6668607396       -2.9135080265
 C        -1.5530135382       -4.5437240698       -1.6983382721
 C        -0.1208145887       -5.0710656948       -1.8892706149
 O         0.7252160009       -4.3251112831       -2.4221653108
 C         0.2174571685       -6.6210618440       -1.6161699958
 C        -0.5037140545       -7.3448691452       -0.4234908005
 O        -1.6668345066       -7.5609909081       -0.6469223597
 C         0.0496699583       -7.5909481199        1.0397359944
 C        -0.9611803768       -8.3013269027        1.8796436203
 C        -0.9958498876       -9.7607240044        1.4325337673
 O         0.0757118880      -10.3345558677        1.0620077339
 C        -2.2331501004      -10.7134239044        1.8040613835
 C        -2.8421217847      -11.4288421867        0.5876505438
 O        -4.0442004299      -11.6571367398        0.6373577080
 C        -1.8915183683      -11.7727565555       -0.5569003033
 C        -1.8057641245      -11.8824654022        2.7115796404
 C        -3.3859239694       -9.8844022629        2.4286542962
 C        -0.0657272573       -7.2239721681       -3.0473205096
 C         1.7819957944       -6.7602379474       -1.4650010521
 C        -5.5868847888       -2.3401336573       -3.3367638966
 C        -4.1657823055       -3.7340061956       -5.1644835043
 C        -1.7333675345        3.2626841397       -2.4643044310
 C        -2.6342013220        5.0644274050       -4.2311107208
 C         2.9992133314        1.8500733676       -6.1792806838
 C         1.9733833374        0.7221912470       -8.2626294026
 C         3.4492690695       -5.1117932504       -4.3711310624
 C         5.2875766380       -4.6509778082       -6.1025471530
 C        -1.8979091672       -4.8850534366       -8.5672513063
 C        -0.7223538992       -5.1089836742      -10.8199154983
 C        -3.6167245173        1.9389401287       -9.4853567942
 C        -4.8888125496        0.4660185571      -10.9593531745
 C        -2.5917924488       -0.0552369556      -16.2239681079
 C        -3.2128292863        2.0464448459      -17.4963163789
 C        -9.9087948124       -2.6542827145      -17.0056789583
 C        -9.3948947189       -2.7221533942      -19.4864861597
 C       -12.9042930122        2.6077705498      -21.7621600276
 C       -12.6926060070        0.6878272536      -23.3562810370
 C        -5.9568875709        2.7267930934      -23.4285767146
 C        -5.1701812816        1.3086569485      -21.6418021914
 H        -7.5630600385        4.9701175353      -22.5088844133
 H        -6.0236523004        5.1833679550      -21.8573134718
 H        -7.4099122876        5.3438824615      -20.7978559702
 H        -7.7785700902        0.6179397602      -24.3385558827
 H        -8.3709369837        2.3859417209      -24.0799130287
 H        -9.8553486062       -0.0754465340      -23.2293354938
 H       -10.1476391019        1.0319756168      -24.6213771937
 H       -13.1489855711        0.7650709104      -19.4329616999
 H       -11.5761450192        1.5099807776      -19.3111492789
 H       -11.9999187348       -1.6177737818      -18.8578965907
 H       -12.1044677287       -0.3713987042      -17.6857618631
 H        -7.5836244934       -2.1249127749      -16.0615723257
 H        -7.8228878919       -0.4160628715      -16.0332252450
 H        -5.3659333221       -1.7495081612      -17.3002381684
 H        -5.3081578085       -1.2589536444      -15.5008961418
 H        -3.9272817112        3.5402196562      -14.9383867953
 H        -2.4626082641        2.6121746364      -14.3555347461
 H        -5.0563303773        2.1720019046      -12.9766339803
 H        -4.1315854016        3.7030423710      -12.5827673168
 H        -1.4567867787       -0.0113970813      -12.2190947228
 H        -2.8316515619       -1.2069745427      -12.1717565917
 H        -0.1442958600       -1.9312721445      -10.8667253480
 H        -1.0257543205       -2.5389783277      -12.3039721667
 H         1.7366989072       -4.7901397752       -9.9586928611
 H         1.0413079614       -5.3909883356       -8.3533468881
 H         2.2934938502       -3.0180930275       -7.4156742826
 H         3.3977104215       -3.9079408719       -8.6076286296
 H         2.6118360814       -2.5979764201       -3.5485542513
 H         1.5171814865       -2.7207223079       -4.9242859702
 H         3.4691913908       -0.3782118410       -4.9209844602
 H         1.9154531135       -0.2525338493       -4.0339445418
 H         0.3885752161        3.7457102608       -8.0360480055
 H         1.5241865208        3.7670542046       -6.7742148834
 H        -1.4265973211        4.2573177099       -6.7099920853
 H        -0.3174400157        5.1471050370       -5.8378286651
 H        -1.8933745166        0.7539030508       -3.7379821676
 H        -2.3660505322        0.9867353368       -5.4433878358
 H        -4.6119484131        0.4070667084       -5.0160529602
 H        -4.1967888142        0.1080943187       -3.3559793611
 H        -1.1314174019       -2.8660594168       -3.0453348965
 H        -1.8746512470       -4.3582522898       -3.7810981917
 H        -2.2337191466       -5.3949276727       -1.5630409906
 H        -1.6585684661       -3.8944377363       -0.8398718483
 H         0.2414587588       -6.5144840971        1.1976570880
 H         1.0140904120       -8.0994954329        0.9746583079
 H        -1.9515070028       -7.7203644921        1.8563158852
 H        -0.6130107427       -8.4374174325        2.9457425565
 H        -0.9013539542      -12.1780476526       -0.2859209927
 H        -1.7960545497      -10.8519211041       -1.0866851515
 H        -2.3568453914      -12.5022417107       -1.2054617300
 H        -2.5053234008      -12.7446916691        2.5158074823
 H        -1.8069817637      -11.6546305876        3.7864834422
 H        -0.8368121220      -12.2342069984        2.3764527093
 H        -4.0587108303      -10.6456758510        2.7298915783
 H        -3.8038051834       -9.2362856608        1.6895304647
 H        -2.8688369677       -9.2618457154        3.1554337636
 H         0.0430454922       -8.2327283619       -2.8287753456
 H         0.8033921184       -7.2152607839       -3.7219366170
 H        -1.0083021482       -6.9657472102       -3.3409500522
 H         2.4068397112       -6.3569145929       -2.2603374635
 H         2.0596536461       -7.8687869731       -1.5434504342
 H         2.2124250630       -6.2790531354       -0.5592975998
 H        -5.6977121939       -1.3002805992       -3.0693095777
 H        -5.8028600190       -3.0116731341       -2.5423527220
 H        -6.4481644800       -2.4885153710       -4.0281967743
 H        -4.3258216741       -4.7037019253       -4.7680065481
 H        -3.3234072660       -3.6361206921       -5.8343349881
 H        -4.9302152877       -3.6350500431       -5.8890602699
 H        -2.6851923344        3.3021933126       -1.9359122730
 H        -1.1721058431        4.1143464632       -2.1318417545
 H        -1.3131578383        2.3164064967       -2.1043886667
 H        -2.7034674770        5.3370476393       -5.3479908292
 H        -1.9817675416        5.7852001676       -3.7710946385
 H        -3.6444008417        5.0641652846       -3.8385811866
 H         3.3150161122        2.6626939651       -6.8094393602
 H         3.8669360136        1.1134193403       -6.2155092058
 H         2.7533670519        2.2499632822       -5.1593200136
 H         1.0811723282        0.1631920120       -8.7177182156
 H         2.7960104585        0.0349556309       -8.3904939647
 H         2.2149636730        1.7108674075       -8.7131528334
 H         3.7559815022       -6.1162637848       -4.4867225600
 H         2.4096166229       -5.1213874456       -4.0164456481
 H         3.9499665721       -4.5862637007       -3.5462003553
 H         5.8818689321       -3.8698379127       -6.3739506834
 H         5.3110818751       -5.3586190383       -6.9826938637
 H         5.8463210563       -5.1329600834       -5.3001697001
 H        -1.4781995291       -5.9228197892       -8.3195441901
 H        -2.9339899992       -4.9849060895       -8.7956072671
 H        -1.9577924143       -4.2987951630       -7.6757227249
 H        -0.3193525911       -6.0282368062      -10.4138000816
 H         0.0898262854       -4.6224935222      -11.4495568021
 H        -1.5651087176       -5.3667091203      -11.4341013124
 H        -2.6010435553        2.3208473303       -9.3606944252
 H        -3.9578888448        1.4075312271       -8.5577063319
 H        -4.2747164438        2.8269453907       -9.6384811943
 H        -5.0128049936       -0.3312132261      -10.2772337040
 H        -4.9273197585        0.1245531539      -11.9284425758
 H        -5.6366095247        1.2419109444      -10.8402197034
 H        -1.7123070616        0.5131846568      -16.1530108252
 H        -2.5824568978       -0.6329825060      -17.1683504744
 H        -2.7692924038       -0.6446052467      -15.3094965643
 H        -2.2373647294        2.3274501992      -16.9829920365
 H        -3.9160814255        2.9074938890      -17.6030805088
 H        -3.0771465830        1.4589591808      -18.3654180537
 H        -9.2026085820       -3.4682832055      -16.7446958796
 H       -10.7592860184       -3.1313457343      -17.3332625194
 H       -10.3072016429       -2.0620489896      -16.1434121764
 H        -8.7568513837       -3.5731184894      -19.5118998888
 H        -8.9110595226       -1.9867392817      -20.2866893692
 H       -10.3910840405       -2.9753642436      -19.8202271789
 H       -13.3952615448        2.3128987957      -20.8530140864
 H       -13.6400853082        2.7167064746      -22.5150142088
 H       -12.3243974876        3.5694679090      -21.5493160996
 H       -13.0461682148        1.3972084134      -24.1285587280
 H       -13.6668237982        0.3937160436      -22.9612023883
 H       -12.1309410640       -0.0753764570      -23.8454769009
 H        -6.0396304936        2.0866069091      -24.3346042316
 H        -4.9240863319        3.0884029220      -23.3706010879
 H        -6.4766396987        3.6909385964      -23.6007915063
 H        -5.2656836909        0.9199575129      -20.6326285563
 H        -4.2454626339        1.8233460187      -21.4953544474
 H        -4.9715765495        0.4617988665      -22.3508344489
 Na       -7.3725244393        1.1521888794      -19.1068508041
 Na       -1.3398484960       -0.9591823352       -7.4095483520
