232

 C        -7.0758523241        4.9203928796      -21.3754164227
 C        -6.7727600281        3.4510262003      -20.9941411141
 O        -6.7419390409        3.1777602109      -19.8282929754
 C        -6.3367954845        2.3873917054      -22.0461402439
 C        -7.6091403980        1.3828523673      -22.2473199786
 O        -7.8163177410        0.7281785815      -21.2892931369
 C        -8.3288439431        1.0562383250      -23.5985752908
 C        -9.8630712831        0.6023794110      -23.4467040135
 C       -10.6463115858        1.7070654566      -22.6194149166
 O       -10.1029020501        2.7869153459      -22.4152068132
 C       -12.1018745199        1.3645094067      -22.2102546569
 C       -11.9141878853        0.1127425071      -21.0544349458
 O       -11.5246642682       -0.9717840770      -21.3157795491
 C       -12.3124581355        0.4061012573      -19.6226101238
 C       -11.7262253640       -0.5524953213      -18.6082823488
 C       -10.1803364077       -0.4491686694      -18.5307182888
 O        -9.5914333128        0.6180603722      -18.7251883232
 C        -9.2974564008       -1.7708963629      -18.2855087488
 C        -7.8385386950       -1.3934965931      -17.9766073514
 O        -7.0345869215       -1.2534378725      -18.8661299158
 C        -7.4216082514       -1.1080812973      -16.4266145737
 C        -5.8697923765       -0.9039639771      -16.3982726399
 C        -5.2754979960        0.4965972848      -16.8860780526
 O        -5.8038708975        1.3217714480      -17.5828151764
 C        -3.7957210190        0.7997248625      -16.3873494683
 C        -4.1325243404        1.3842753502      -14.8444642018
 O        -4.7112616879        0.5919981269      -14.1039657506
 C        -3.7356263681        2.7721160767      -14.3811413908
 C        -3.8255685025        2.8938246512      -12.7840061077
 C        -2.8960967272        2.0279706595      -12.0188627115
 O        -1.7517073553        1.8921921579      -12.3476037679
 C        -3.4233430739        1.0726090050      -10.8463724970
 C        -2.4718166785       -0.0736946309      -10.6523684607
 O        -1.9719082303       -0.2848165858       -9.5929103272
 C        -2.0448132460       -1.0150497874      -11.8941746923
 C        -1.1773126045       -2.2767971172      -11.5127485056
 C        -1.9132967915       -3.0905439678      -10.3071706386
 O        -3.0458227955       -2.9189201927      -10.0190590030
 C        -1.0744316936       -4.2765059928       -9.7254814107
 C         0.3520429753       -3.6944194945       -9.2880405635
 O         0.3378461497       -2.5678335415       -8.8941450377
 C         1.6076237722       -4.6259351225       -9.0761353857
 C         2.5773362571       -3.9521666866       -8.0441441931
 C         2.8169744801       -4.8791404756       -6.8266036645
 O         2.3090916270       -5.9702441702       -6.7564622547
 C         3.7235652246       -4.3150508850       -5.6276630798
 C         3.5226043435       -2.7724727826       -5.4579098265
 O         4.0948745663       -2.0203725336       -6.2248936567
 C         2.6328843461       -2.1835698147       -4.3409185409
 C         2.3340438787       -0.6891063030       -4.4145380829
 C         1.6501054252       -0.3026044860       -5.7780289458
 O         0.8424489986       -1.1850972625       -6.2092075097
 C         1.9187869412        0.9342190427       -6.6948176866
 C         0.3999422882        1.7770073980       -6.8056024763
 O        -0.6256033479        1.1368802649       -6.9500275193
 C         0.4445191389        3.3153778125       -6.8409383463
 C        -0.7429294062        3.8518522211       -6.0990866546
 C        -0.8417656518        3.2764817926       -4.7251970728
 O         0.0279938429        2.4766427254       -4.4311190816
 C        -2.0547703827        3.6327677585       -3.7961720207
 C        -3.1757527178        2.4942439544       -4.3152318986
 O        -4.2810709850        2.8791322252       -4.5843758057
 C        -2.6467729255        1.1265979248       -4.5920242245
 C        -3.6839106490        0.0277820705       -4.1985032180
 C        -3.5782421330       -1.2497818728       -4.9474884991
 O        -3.1696622095       -1.3638912836       -6.1104980191
 C        -4.1268401639       -2.4398242651       -4.1234902932
 C        -3.0966210320       -2.6120319108       -2.7939850057
 O        -3.1583201233       -1.8035605620       -1.9101141240
 C        -2.0645908142       -3.8002487013       -3.0367467371
 C        -1.5978081687       -4.5551619880       -1.7908712826
 C        -0.1235698565       -5.0362379154       -2.0202801029
 O         0.6173404419       -4.3196825227       -2.5988947817
 C         0.2954768173       -6.5301552978       -1.7176481207
 C        -0.5919332946       -7.3613461403       -0.6647711142
 O        -1.6972696923       -7.7832769788       -0.9194474806
 C         0.0577416540       -7.5848912970        0.8154186654
 C        -0.8772427395       -8.3114055454        1.7620225116
 C        -0.8085561340       -9.8809076005        1.4547658297
 O         0.1039269957      -10.3942546270        0.9368142345
 C        -2.0769934873      -10.7144826821        1.8517799860
 C        -2.6567488229      -11.4272582466        0.4472896660
 O        -3.7206756941      -11.9613956756        0.4301032225
 C        -1.9136447728      -11.4157665414       -0.8520629486
 C        -1.6341893230      -11.8425877537        2.8775842066
 C        -3.3160482666       -9.8823003974        2.5696869544
 C        -0.0354937471       -7.3012187092       -2.9494473981
 C         1.7653468079       -6.5284316714       -1.2982799602
 C        -5.5434591568       -2.0293573336       -3.7502380180
 C        -4.2125102552       -3.7346317014       -4.8998849140
 C        -1.8454156291        3.5882865278       -2.2661772661
 C        -2.7197580261        4.9300895871       -4.1117838821
 C         2.9285629872        1.8526874576       -6.1176894210
 C         2.1866595907        0.6369300065       -8.2087442384
 C         3.5745222168       -5.0793047603       -4.2450687410
 C         5.2251897083       -4.3893254341       -6.0336867519
 C        -1.9184473040       -4.7640606692       -8.5285280472
 C        -0.8119283094       -5.3793863478      -10.7501424145
 C        -3.5527618201        1.9858764551       -9.5877396819
 C        -4.8038219344        0.3447824696      -11.1083708650
 C        -2.8388830301       -0.4416503748      -16.4190503890
 C        -3.3044691663        2.0132438821      -17.2768690730
 C       -10.1853615562       -2.5472623776      -17.1286707425
 C        -9.4528209280       -2.6173352641      -19.5653517322
 C       -12.7367856521        2.5903636159      -21.5712162829
 C       -12.8915165354        0.7745813256      -23.4107551198
 C        -5.9614191342        3.1424704102      -23.3763306317
 C        -5.1873388072        1.6171487931      -21.3952932027
 H        -8.0071874464        4.9343912000      -22.0049570835
 H        -6.3777847746        5.5600342288      -21.8745432077
 H        -7.5254704809        5.3495194273      -20.4538205315
 H        -7.7950227872        0.0609589906      -23.7216863697
 H        -8.2375945027        1.8881165420      -24.2709767835
 H        -9.8423818195       -0.3230820399      -22.8044251500
 H       -10.2679628492        0.3831010524      -24.4516978921
 H       -13.4417543581        0.4257992847      -19.5517792652
 H       -11.8818101410        1.3888500518      -19.4382555452
 H       -11.9401771624       -1.5963480107      -18.7611256813
 H       -12.0923211491       -0.3754130525      -17.5876549543
 H        -7.5956266266       -2.0602837230      -15.7971903941
 H        -7.9897937000       -0.2870782249      -16.0846073193
 H        -5.3850679288       -1.7148125670      -16.9789611495
 H        -5.6146911402       -0.8373098400      -15.3355022420
 H        -4.4258754467        3.4341217422      -14.8287669703
 H        -2.6918881942        3.0091202287      -14.6524304135
 H        -4.8532017229        2.7520382510      -12.4145859147
 H        -3.4557744729        3.9001161076      -12.5748971774
 H        -1.4738414454       -0.3679106152      -12.5631906059
 H        -2.9207523688       -1.4917049503      -12.3729476933
 H        -0.1824468515       -2.1073127525      -11.2372418849
 H        -1.0532436541       -2.9199401149      -12.4546849235
 H         1.9917425543       -4.9234633481       -9.9278994446
 H         1.2275051379       -5.5564328550       -8.6472474751
 H         2.1622457331       -2.9698378988       -7.6529485314
 H         3.5060574239       -3.7604815781       -8.5403965317
 H         3.1604327006       -2.2508652361       -3.3631248473
 H         1.6869371004       -2.7980529492       -4.3513317383
 H         3.3244124791       -0.2877656207       -4.2829476576
 H         1.6916258814       -0.3243369776       -3.5651792672
 H         0.4179907119        3.6443595079       -7.8528978764
 H         1.3630627404        3.7747534823       -6.4250083553
 H        -1.6780548639        3.4662842281       -6.6701605827
 H        -0.9142201629        4.9057636460       -6.1980762338
 H        -1.7907552687        0.9939729765       -3.9519655149
 H        -2.4448836257        0.9705105383       -5.7014197741
 H        -4.6945279586        0.4449731111       -4.2793199253
 H        -3.5193602003       -0.1681154908       -3.0946966074
 H        -1.1584652315       -3.2718318977       -3.4469510867
 H        -2.4265792691       -4.5780763383       -3.6961202120
 H        -2.1906359707       -5.3977148337       -1.4319624436
 H        -1.4654609661       -3.8253530104       -0.9291911017
 H         0.4010251054       -6.5868102339        1.0532765283
 H         0.9439784334       -8.1792759074        0.6245797371
 H        -1.8656510762       -8.0265896050        1.5187518387
 H        -0.7651859233       -8.0144931183        2.7819416926
 H        -0.8571676056      -11.5665517894       -0.7359660529
 H        -2.0929334436      -10.4453618377       -1.3277941542
 H        -2.3139867740      -12.2184164530       -1.4554153649
 H        -2.1959059207      -12.6970313610        2.6833520208
 H        -1.9716637494      -11.5073954946        3.8396156227
 H        -0.5754614513      -12.1155269677        2.8942826181
 H        -3.9380315912      -10.7636136126        2.6115718268
 H        -3.7217143235       -9.0598020283        2.0001528009
 H        -2.9517044945       -9.4940119219        3.4817761164
 H         0.3876448285       -8.3172843912       -3.0601637189
 H         0.5033814414       -6.8805950309       -3.7582199560
 H        -1.1891500339       -7.1626810911       -2.9558772207
 H         2.4100360235       -6.0702821798       -2.0288613108
 H         2.1215127423       -7.4816988897       -1.2225489508
 H         1.9397450381       -5.9963790356       -0.3736890025
 H        -5.6507183573       -1.4026267937       -2.8436759258
 H        -6.2326161819       -2.9095850814       -3.6221513309
 H        -6.0062303769       -1.4720779327       -4.5325662636
 H        -4.5858838410       -4.5819660179       -4.2783722210
 H        -3.4019366219       -3.9272845616       -5.6108648848
 H        -4.9955301946       -3.6955795858       -5.7155512123
 H        -2.8032737366        3.6774356188       -1.7273096053
 H        -1.0775521377        4.2468827008       -1.8100309009
 H        -1.6032247457        2.5668683418       -2.0578883584
 H        -2.9595676273        4.9554655999       -5.1208541156
 H        -2.0370081966        5.7411914777       -3.8383061842
 H        -3.6440615513        4.8893724106       -3.4706097117
 H         3.2986130354        2.6531094719       -6.7394385451
 H         3.8529156480        1.3431394092       -5.9290499763
 H         2.4839982622        2.2809144393       -5.2842152898
 H         1.7501772801       -0.2711891631       -8.3476373010
 H         3.2347215828        0.3286806745       -8.3669573596
 H         1.9467881264        1.4222022941       -8.8721283503
 H         3.6002111304       -6.1260541165       -4.5235654375
 H         2.5565504332       -5.0282573728       -3.8855499879
 H         4.1613226121       -4.7312935239       -3.4410002520
 H         5.9063168804       -3.7104719339       -5.4490115482
 H         5.4470967913       -4.1493905440       -7.0521845836
 H         5.6332041089       -5.4249805480       -5.8959653064
 H        -1.5192269957       -5.6175102578       -8.1441958397
 H        -2.9580790957       -4.8901073152       -8.8545423909
 H        -2.0805623079       -4.0935008206       -7.6695714833
 H        -0.3982108761       -6.2601182710      -10.2145436950
 H        -0.0829447324       -5.0918678888      -11.5558562445
 H        -1.7602944525       -5.6177365668      -11.3246862173
 H        -2.7588965504        2.7094260997       -9.4893973464
 H        -3.5859169155        1.3490300900       -8.7246495301
 H        -4.5438675924        2.4424710671       -9.5781182653
 H        -5.0758055382       -0.1992140407      -10.1600408624
 H        -4.6630638367       -0.3275557313      -12.0021452749
 H        -5.5120131824        1.1259544462      -11.3833064862
 H        -2.1530932762       -0.3719106299      -15.4819439778
 H        -2.3530798479       -0.4428022851      -17.3969425514
 H        -3.4655010818       -1.3146653081      -16.4037907624
 H        -2.6461214818        2.6154446486      -16.7014332642
 H        -4.1620483635        2.5763449826      -17.5395782463
 H        -2.9087282155        1.4352508720      -18.1240468264
 H        -9.8990827771       -3.5655565171      -17.0001258000
 H       -11.3407633680       -2.4689102576      -17.3040849028
 H       -10.0895127492       -2.0599657217      -16.1785396306
 H        -8.9984011752       -3.5992637298      -19.2973552472
 H        -8.9598344846       -2.3225837476      -20.3893289457
 H       -10.4865616946       -2.8670446493      -19.7831009832
 H       -12.0157848168        3.0754079524      -20.8474402835
 H       -13.6972502621        2.1980937498      -21.1289695617
 H       -12.9848594067        3.3137030851      -22.3260814551
 H       -13.1675291912        1.4292628430      -24.2125086431
 H       -13.8322503899        0.3698339458      -22.9779756098
 H       -12.2545921235        0.0466018638      -23.9302474374
 H        -5.3419116936        2.4485698972      -23.9333665298
 H        -5.3522379758        4.0612880573      -23.3323631646
 H        -6.7956235535        3.3175574048      -23.9964951612
 H        -5.4279544576        1.2171782044      -20.4219989370
 H        -4.2929896481        2.2529609651      -21.1541613670
 H        -4.7629329797        0.8752418058      -22.0122169862
 Na       -7.4557308479        1.1013927028      -19.3077384379
 Na       -1.1242208103       -1.0747521284       -7.4616424691
