232

 C        -7.3100451459        4.9536121404      -21.2901260831
 C        -6.9660245551        3.5688747085      -20.9467173401
 O        -7.2296138205        3.1520754437      -19.8356549765
 C        -6.4395644845        2.5623539882      -22.0964803857
 C        -7.5542853577        1.4417890201      -22.2616411898
 O        -7.7514915219        0.5800338551      -21.3931006547
 C        -8.2387387825        1.1444728830      -23.6439727741
 C        -9.5801654199        0.4034140299      -23.1933149749
 C       -10.5042565542        1.4519534749      -22.5512882693
 O       -10.0904395360        2.5797526249      -22.4740028150
 C       -12.0404981125        1.2562828872      -22.0989751747
 C       -12.0767847896        0.1462484438      -21.0824968700
 O       -11.6612030532       -0.9738008441      -21.3773029579
 C       -12.3876956090        0.4457410468      -19.6190729645
 C       -11.8746956922       -0.6120056222      -18.6672555900
 C       -10.2658113980       -0.4097665797      -18.5080839073
 O        -9.8061606613        0.7028788287      -18.6542799501
 C        -9.4589316672       -1.7089779354      -18.2549974563
 C        -7.9685800923       -1.3109434514      -17.9181641663
 O        -7.1859209444       -1.3514596486      -18.8758338315
 C        -7.5387611335       -0.8259235808      -16.4918016262
 C        -6.0244494891       -0.8354387333      -16.2666790470
 C        -5.3934399907        0.5280378550      -16.7909354558
 O        -5.9770816520        1.3444976878      -17.4958857624
 C        -3.9821616781        0.8867703336      -16.1936570811
 C        -4.2474490135        1.3246609364      -14.7168855895
 O        -4.6281362793        0.5063177231      -13.9171470985
 C        -3.8303311997        2.7405598823      -14.3443616038
 C        -3.7015454773        2.9421445853      -12.8615578712
 C        -2.7673126007        1.9459524079      -12.1452006843
 O        -1.5488997182        2.0354850012      -12.3524462680
 C        -3.3829644835        0.9410789756      -11.0439729721
 C        -2.3915933746       -0.2682796106      -10.8191652336
 O        -1.7603866934       -0.2928507298       -9.7661284432
 C        -2.1047184579       -1.2256192334      -11.9348358790
 C        -1.1626220988       -2.3712571580      -11.5547391537
 C        -1.8669855207       -3.2132404905      -10.4500483220
 O        -3.0439532229       -3.0805690343      -10.1111516359
 C        -0.9720840414       -4.3730028710       -9.7279021829
 C         0.3577004008       -3.8020369908       -9.2796356783
 O         0.3877021945       -2.6873434432       -8.6946267993
 C         1.6164002984       -4.6667282148       -9.1215632312
 C         2.7063397950       -4.0638369571       -8.1488533856
 C         2.8013537221       -4.7251104915       -6.7401665539
 O         2.1780591358       -5.7334895883       -6.4591588117
 C         3.7349258092       -4.1372863577       -5.6405138733
 C         3.5048846198       -2.5756987088       -5.4331987004
 O         3.9170150993       -1.7663873549       -6.2401707595
 C         2.7300829340       -2.0931970565       -4.1649036718
 C         2.4341670322       -0.5244611901       -4.3613046809
 C         1.4951169961       -0.3279215807       -5.5491168689
 O         0.6635107491       -1.1277788729       -5.8634253364
 C         1.8436351208        0.8603391329       -6.5108618352
 C         0.5287515476        1.6531904714       -6.7079092176
 O        -0.4770912882        1.0047216858       -7.0120158907
 C         0.4906525707        3.2569141428       -6.7296234215
 C        -0.8120759635        3.7190912929       -6.0597754856
 C        -0.8629917069        3.3909528952       -4.6241025669
 O         0.0412033849        2.7102343398       -4.1423807821
 C        -2.0626675659        3.7249235933       -3.8768299635
 C        -3.1081359175        2.6069571049       -4.4086800354
 O        -4.2508969881        2.8823034183       -4.6835669157
 C        -2.5277307781        1.1502953020       -4.6667110877
 C        -3.6229916425        0.1531704966       -4.2079585814
 C        -3.6305684758       -1.2181506770       -5.0297161559
 O        -3.2416280018       -1.4159198071       -6.1664736048
 C        -4.1568142674       -2.4975295161       -4.1963225460
 C        -3.1315998692       -2.7815974055       -3.0872421811
 O        -3.1136771878       -1.9952881760       -2.1191552540
 C        -2.1322962958       -3.9473999169       -3.1780567015
 C        -1.6311262381       -4.4363469801       -1.8095344220
 C        -0.2231610404       -5.0981698289       -2.0519918388
 O         0.5690310167       -4.3230627885       -2.6184406869
 C         0.2643413213       -6.4693702950       -1.7971760865
 C        -0.6747233982       -7.2821121112       -0.7800384289
 O        -1.7851350248       -7.7185616196       -1.0507073183
 C         0.0037403588       -7.4725384584        0.6169103792
 C        -0.9003674831       -8.2231350990        1.6283985444
 C        -0.7611555876       -9.8019723536        1.4618281545
 O         0.2765344629      -10.3543464519        0.9831072514
 C        -2.0147082642      -10.7136573759        1.7819225011
 C        -2.5911588273      -11.4539288345        0.4493694727
 O        -3.4940271216      -12.2580480464        0.4850630357
 C        -1.9223240461      -11.0442506680       -0.8090841550
 C        -1.4077714470      -11.9383797577        2.6364258941
 C        -3.2465120772      -10.0595539415        2.3532095521
 C         0.2592750527       -7.3387366855       -3.1398874587
 C         1.7155407269       -6.3937107469       -1.3077009991
 C        -5.4967002551       -2.0649601599       -3.5790653267
 C        -4.4264989436       -3.6442692330       -5.1071574887
 C        -1.7735467178        3.4541169866       -2.4132266614
 C        -2.6261566313        5.1999662973       -4.0475145260
 C         2.9669114513        1.8091908528       -5.9326001185
 C         2.3705034053        0.2730000430       -7.8813597634
 C         3.4582681549       -4.9367066973       -4.3501324084
 C         5.1443676654       -4.4831412038       -6.1920905376
 C        -1.6901719761       -4.8439167195       -8.4196191703
 C        -0.9540315678       -5.6002767887      -10.6857273122
 C        -3.3549741688        1.9625751469       -9.8020863441
 C        -4.8269107396        0.4268204075      -11.2365595990
 C        -3.1279151290       -0.4442381407      -16.2240524610
 C        -3.2119316938        1.9453577580      -16.9834591886
 C        -9.9126996019       -2.4427491521      -17.0618212482
 C        -9.4162294427       -2.6198574169      -19.6002845543
 C       -12.6854745485        2.6899727250      -21.6052780030
 C       -13.0033205333        0.7130401117      -23.2430242848
 C        -6.0323018325        3.2508715688      -23.4287686619
 C        -5.1748410071        1.8908452162      -21.5892001368
 H        -8.2491342271        5.1184843272      -21.8296805059
 H        -6.4721913604        5.2854019122      -21.9634569543
 H        -7.4507803488        5.6250150066      -20.4218905311
 H        -7.6638418448        0.4524937180      -24.1998163443
 H        -8.5163517493        2.1514713159      -23.9804134537
 H        -9.3019497526       -0.4114289693      -22.5676776043
 H       -10.1305582236        0.0594122443      -24.0487356657
 H       -13.4798342033        0.4535539740      -19.5880000340
 H       -11.9062495075        1.4217574543      -19.3445439511
 H       -12.0492362823       -1.6452496941      -18.9897731384
 H       -12.2904986484       -0.5779055727      -17.6651245500
 H        -8.0414127510       -1.3373359748      -15.7108861643
 H        -7.9157758789        0.2663001799      -16.6490825929
 H        -5.6260217992       -1.5196736043      -17.0408665860
 H        -5.7616902683       -1.0677996885      -15.2031953030
 H        -4.5377736439        3.5341777490      -14.7242809352
 H        -2.8286435209        2.8918238267      -14.7557809893
 H        -4.7275200065        2.9706637467      -12.4653705652
 H        -3.2559393369        3.9521245972      -12.7047779734
 H        -1.4932657864       -0.7136955168      -12.7202403072
 H        -3.0980468782       -1.5527941751      -12.2794090772
 H        -0.1077084494       -2.0245120690      -11.4051705616
 H        -1.0367929399       -3.0612655570      -12.3427793805
 H         2.1320805468       -4.8679432337      -10.1986310327
 H         1.2595151329       -5.7282339720       -8.8169183316
 H         2.5194931102       -2.9782202018       -8.0792719111
 H         3.7298278683       -4.1576660580       -8.6225390841
 H         3.5159815785       -2.0998027084       -3.3991303426
 H         1.8172532879       -2.5519154918       -3.7940783582
 H         3.4028259881       -0.0304887871       -4.5929700106
 H         2.0279310201        0.0077798935       -3.5167323938
 H         0.3596296067        3.4067420421       -7.8672637550
 H         1.2611778462        3.9089792952       -6.4351027723
 H        -1.6551821451        3.2986049185       -6.5193199808
 H        -1.0161330781        4.7979400600       -6.1810824141
 H        -1.6346427718        0.9255252036       -4.0201626967
 H        -2.2848393673        1.0348219594       -5.7167937621
 H        -4.6050121623        0.6505735526       -4.1477104932
 H        -3.3757837710       -0.0656266858       -3.1995920492
 H        -1.2122578368       -3.5620273063       -3.5993409840
 H        -2.4698575326       -4.7937963777       -3.7679840229
 H        -2.2621683398       -5.0794808687       -1.1922561210
 H        -1.3193540145       -3.6187710966       -1.2112639734
 H         0.4521606535       -6.5172583257        1.0452210490
 H         0.8817804397       -8.1234690679        0.3854304221
 H        -1.9924232325       -7.9908005777        1.6100118206
 H        -0.5579566461       -7.7974878409        2.6006044681
 H        -0.9048656558      -11.4587648962       -0.7135831947
 H        -1.8419779841       -9.9448060209       -0.7860306291
 H        -2.4069218712      -11.4349411315       -1.7221023855
 H        -2.2436244777      -12.5145913373        3.1224048370
 H        -0.7923166778      -11.5925037023        3.4666388721
 H        -0.8270532121      -12.5620270839        1.9816990469
 H        -3.9536216588      -10.8634763239        2.5107543248
 H        -3.5528639431       -9.3725798580        1.5299813428
 H        -2.9010618419       -9.4646960278        3.2423486571
 H         0.9819573025       -8.1735001558       -3.0560254472
 H         0.7793747223       -6.7268966413       -3.9404276419
 H        -0.7062002975       -7.7035654108       -3.3472799687
 H         2.2184717706       -5.8347300100       -2.1118110071
 H         2.3740081548       -7.2992276018       -1.0674448996
 H         1.7938278855       -5.7326202604       -0.4323554444
 H        -5.3355585989       -1.6604560195       -2.6035283148
 H        -6.0458822851       -2.9507436585       -3.3496533364
 H        -6.1721792082       -1.3582153493       -4.1527538103
 H        -4.8855136306       -4.3963715612       -4.5112851590
 H        -3.5634255930       -4.0370323475       -5.5787603011
 H        -5.1194219573       -3.4842282798       -5.9031866336
 H        -2.6466669501        3.5730618232       -1.7944383369
 H        -1.0454944116        4.1677123619       -2.0888430273
 H        -1.3010729675        2.4585932223       -2.2559551145
 H        -3.0920289985        5.1198011231       -5.0969261232
 H        -1.8023380923        5.9622162206       -4.0091745303
 H        -3.3591920955        5.3469515212       -3.2868802125
 H         3.1746245402        2.6989140755       -6.5858923150
 H         3.9554601678        1.3203836709       -5.9917864174
 H         2.7305720636        2.3517018039       -4.9411388595
 H         1.7250510228       -0.5140861938       -8.3671764032
 H         3.2710066125       -0.2750981523       -7.7547775678
 H         2.5987811588        1.1809062403       -8.4495595402
 H         3.4241020241       -6.0175368275       -4.5318654817
 H         2.4364286475       -4.7221383639       -3.9962390278
 H         4.1297466640       -4.5796043823       -3.5094997385
 H         5.8326250078       -5.0402017342       -5.4752294039
 H         5.6686652726       -3.5444438099       -6.4120296873
 H         5.1464457466       -4.9365570620       -7.1426596146
 H        -0.9333059393       -5.3290374658       -7.7036223527
 H        -2.5719059021       -5.4556551162       -8.6322743500
 H        -2.1518228474       -4.0816680575       -7.8207505965
 H        -0.1615534904       -6.2709096239      -10.3997409114
 H        -0.7979168184       -5.3496000352      -11.6810027803
 H        -1.9329691554       -6.0292490257      -10.7606612400
 H        -2.3354968329        2.4325252741       -9.7934289563
 H        -3.5785688448        1.4081739148       -8.8909479563
 H        -4.1627361420        2.6563324686       -9.8949130009
 H        -5.0502748416        0.1639188876      -10.2218947522
 H        -4.7134424833       -0.4806762728      -11.8327528691
 H        -5.5891643270        1.1061894114      -11.6665300862
 H        -2.4544518465       -0.3330100516      -15.4736505772
 H        -2.7271069758       -0.5069746899      -17.2145584833
 H        -3.7224888416       -1.3602301241      -16.1936169330
 H        -2.1795452997        1.8799986700      -16.7020280538
 H        -3.5681292579        2.9398243726      -16.6278587652
 H        -3.4514494220        1.7740532837      -18.0160635961
 H        -9.0916642647       -3.1512038643      -16.7601656049
 H       -10.8060975230       -2.9509536574      -17.1846250184
 H        -9.9777624668       -1.8011514715      -16.1572367018
 H        -9.0244581339       -3.6611965573      -19.5495648083
 H        -8.8268301225       -2.0809033927      -20.3900706246
 H       -10.4846922017       -2.7062425615      -20.0066489434
 H       -12.1061846325        3.4302804662      -22.0561638536
 H       -12.7056194635        2.8675475404      -20.5514968359
 H       -13.7315223062        2.8056512377      -21.9320662461
 H       -12.7352383355        1.0703382189      -24.2613141339
 H       -13.9975895186        0.8949109627      -22.9410037454
 H       -12.8303812684       -0.3519352469      -23.4596793455
 H        -5.4078711705        2.5878772035      -24.0198734806
 H        -5.3180240243        3.9657869174      -23.1530921896
 H        -6.8054381566        3.6692315429      -24.1585817356
 H        -5.2961158419        1.1746797597      -20.7613158520
 H        -4.3862600779        2.5269306091      -21.3330012426
 H        -4.6836225479        1.3339509850      -22.4256882930
 Na       -7.4705858686        1.0299517523      -19.0327549923
 Na       -0.9342612026       -1.1880974732       -7.6539983846
