232

 C        -7.3614618947        4.9938280074      -21.4067336737
 C        -7.1274349841        3.5048873725      -21.0100087584
 O        -7.4275074926        3.0987742912      -19.9244481532
 C        -6.4769895735        2.5828388620      -22.1216042267
 C        -7.4776583378        1.4106193795      -22.2292909853
 O        -7.5443767504        0.6913630819      -21.3329853039
 C        -8.3231059144        1.1315903504      -23.5256821217
 C        -9.7506709175        0.4467193283      -23.3191657236
 C       -10.5854848937        1.5572517744      -22.6247080520
 O       -10.0134044069        2.6128355372      -22.4080737408
 C       -12.0363395391        1.2816746575      -22.1680221177
 C       -12.0214810328        0.1345805099      -20.9766795947
 O       -11.7261456561       -0.9697568677      -21.3417918286
 C       -12.4742200683        0.4441507538      -19.5491298254
 C       -11.9145444121       -0.6139483238      -18.6155343742
 C       -10.3156344212       -0.5466155158      -18.5568469393
 O        -9.8513976856        0.6079472146      -18.5689143667
 C        -9.4799382481       -1.7625407883      -18.2711428548
 C        -7.9570305286       -1.2447744026      -17.9534810318
 O        -7.0269869870       -1.3286210115      -18.7262301357
 C        -7.6775496365       -0.6692022382      -16.5695111418
 C        -6.1461041204       -0.6921493407      -16.3391908692
 C        -5.3912479712        0.5278107106      -16.7617632492
 O        -5.9091138378        1.4405220282      -17.3483050598
 C        -3.9470388153        0.8505241142      -16.2064783077
 C        -4.1476014296        1.2676875133      -14.7073794940
 O        -4.6167200994        0.4172659989      -13.9398144666
 C        -3.8234966047        2.7046750476      -14.2389493849
 C        -3.7515736565        2.9033159660      -12.7365357367
 C        -2.7634740703        1.9344773816      -12.1447875053
 O        -1.5799495862        1.9347662184      -12.4359763286
 C        -3.2485638568        0.9887370452      -11.0089400842
 C        -2.2892585554       -0.1773599904      -10.8465187268
 O        -1.7195607953       -0.2665079548       -9.8094778863
 C        -2.1533192753       -1.2952522336      -11.9876962358
 C        -1.1569288818       -2.4704939610      -11.5092942734
 C        -1.8476722145       -3.3022353422      -10.3876448136
 O        -3.0001509328       -3.1845541361      -10.1888259071
 C        -0.9406533980       -4.3925802751       -9.6281805609
 C         0.3764664086       -3.8420397318       -9.1706511689
 O         0.4348750011       -2.7130260988       -8.6676808735
 C         1.6731066104       -4.6935189906       -9.0866965573
 C         2.7539933488       -4.0877922062       -8.2725628120
 C         2.6751928209       -4.6644044829       -6.7558119710
 O         1.9070239097       -5.5908083217       -6.5583922314
 C         3.6636117954       -4.0409332867       -5.6573039381
 C         3.5147263163       -2.6187677171       -5.4104789339
 O         3.8684350791       -1.8484873705       -6.2978626450
 C         2.7949084583       -2.1176453554       -4.1615623291
 C         2.5188666047       -0.5971347685       -4.2456594758
 C         1.5721198069       -0.3690823713       -5.4732675838
 O         0.6046288796       -1.1086493678       -5.6796664684
 C         1.8967187735        0.9012567811       -6.4682163747
 C         0.5617159368        1.6792420312       -6.8209537885
 O        -0.4518155186        1.0218394400       -7.1204886979
 C         0.5210328788        3.1554332118       -6.8146367316
 C        -0.7146831069        3.7460443123       -6.1685771604
 C        -0.7097648964        3.4306944858       -4.5956208896
 O         0.2406587013        2.8396630460       -4.0946197265
 C        -2.0864385024        3.6867765676       -3.8848593520
 C        -3.1826263122        2.6386213120       -4.4261435556
 O        -4.3239761684        2.8893115010       -4.7274247796
 C        -2.6194087836        1.1997230811       -4.6247104167
 C        -3.5887265136        0.0884804338       -4.2788864920
 C        -3.5335925022       -1.2585885692       -5.0334905760
 O        -3.0199848694       -1.3714820822       -6.1198682487
 C        -4.2586707854       -2.4641601486       -4.2873595533
 C        -3.1286520211       -2.7723022531       -3.1617604498
 O        -3.1619230884       -2.0814743923       -2.1567699059
 C        -2.2920138311       -4.0374259045       -3.3043720737
 C        -1.6670340186       -4.4626975452       -1.9266986094
 C        -0.1615205676       -5.0578144648       -2.1657187214
 O         0.6437758244       -4.3231833318       -2.6546525635
 C         0.3367861176       -6.5263865195       -1.8491277963
 C        -0.5629762851       -7.3231654397       -0.8509300723
 O        -1.7576231928       -7.5357817296       -1.0718724834
 C         0.0513962049       -7.4395179681        0.6233670907
 C        -0.9822234953       -8.3166888392        1.5404731384
 C        -0.7424912950       -9.7845344581        1.4138958589
 O         0.3304896100      -10.1516410254        1.0607874789
 C        -1.9535648925      -10.7426422348        1.7202014182
 C        -2.4893518496      -11.4610644282        0.3909717404
 O        -3.3172271079      -12.3306427955        0.5141794829
 C        -1.9919137981      -10.9464289471       -0.9260080753
 C        -1.3702589727      -12.0497602837        2.5853285357
 C        -3.2894496096      -10.1217519642        2.3961202499
 C         0.3450309028       -7.2413644972       -3.1899646199
 C         1.7147389405       -6.3917022560       -1.2812713105
 C        -5.5149451095       -2.1763801335       -3.3670603934
 C        -4.5297144619       -3.5067224214       -5.3598100982
 C        -1.8580761191        3.3993632966       -2.3500796467
 C        -2.6133523847        5.1320061415       -4.0526781423
 C         2.9809845310        1.7761478966       -5.8508165075
 C         2.2970167270        0.1913035825       -7.6954318588
 C         3.5121673540       -4.7515504236       -4.2520068657
 C         5.1436379919       -4.3317565371       -6.2118758650
 C        -1.6337228406       -4.8885913817       -8.3725931134
 C        -0.8782662305       -5.6108000008      -10.6107795413
 C        -3.2111734272        1.8868464693       -9.7703629184
 C        -4.7311367749        0.4206550395      -11.1848729282
 C        -3.0554936541       -0.4473218931      -15.9848636023
 C        -3.3445818315        1.9041866444      -17.1629614519
 C        -9.9720293040       -2.5433185223      -16.9718945704
 C        -9.5652357889       -2.5462994807      -19.5741634770
 C       -12.5983432539        2.6144994605      -21.7634429632
 C       -12.8846862367        0.6948037093      -23.3250340897
 C        -6.2806886912        3.2993117674      -23.4350115453
 C        -5.1801325847        1.9858707380      -21.5295315177
 H        -8.3066894540        5.0784936100      -21.8913388152
 H        -6.6579663569        5.5177194548      -21.9650115101
 H        -7.6530541831        5.5595953626      -20.5040969475
 H        -7.7335148503        0.3798109224      -24.0411949370
 H        -8.4525268115        2.0619550518      -23.9482162483
 H        -9.5555517387       -0.2753957751      -22.4823720771
 H       -10.1466196041       -0.0603720439      -24.2077461257
 H       -13.5695383085        0.4112334720      -19.5555283537
 H       -12.0287534490        1.3888139439      -19.3153419120
 H       -12.1729954761       -1.6384033466      -18.9260769511
 H       -12.1982361131       -0.5537861676      -17.5349867803
 H        -8.0866633396       -1.3373138359      -15.8228539292
 H        -8.0477054200        0.3386748796      -16.5102611769
 H        -5.7059085826       -1.5201752919      -16.8154185274
 H        -6.0629462307       -0.7270476442      -15.2223684438
 H        -4.4497084978        3.4674365390      -14.6714639733
 H        -2.7441317867        2.8324829436      -14.6017498843
 H        -4.7714577322        2.8096872462      -12.3826900566
 H        -3.4593334754        3.9382965837      -12.4746701532
 H        -1.6227236461       -0.9015259720      -12.7843907391
 H        -3.1822845946       -1.6229151204      -12.2508699493
 H        -0.1772792194       -2.0303292333      -11.2687661418
 H        -0.8303982829       -3.2387322886      -12.3238880373
 H         2.0895308019       -5.1957154828       -9.9923448703
 H         1.3655362868       -5.7085686435       -8.4133286674
 H         2.6338904985       -2.9839029025       -8.3672838384
 H         3.7355380693       -4.3051444960       -8.6406775947
 H         3.4204490761       -2.1936929559       -3.3106240840
 H         1.8120976948       -2.4527552482       -3.8868816985
 H         3.4094367461        0.0029102322       -4.3305153505
 H         1.9729622176       -0.2693908477       -3.3049435718
 H         0.7131074608        3.5697510880       -7.8685250072
 H         1.2670165492        3.6208799571       -6.2104776612
 H        -1.6610673326        3.4438603358       -6.6321834583
 H        -0.7097993630        4.8194636844       -6.3239429519
 H        -1.8277786512        1.0572580466       -3.9558397029
 H        -2.2004797548        1.1263562011       -5.6353894878
 H        -4.5877115599        0.4373171360       -4.6133920033
 H        -3.6775991407        0.0671877678       -3.2095279456
 H        -1.4986910050       -3.9457384753       -4.0683286101
 H        -2.9426069583       -4.8288641246       -3.6085565238
 H        -2.2143260451       -5.3221482701       -1.5022032877
 H        -1.6635505936       -3.6817974486       -1.1959119792
 H         0.0415317162       -6.4103888951        1.0183403819
 H         1.1184278186       -7.7241757763        0.6045947681
 H        -2.0444660500       -8.0313110034        1.4316382620
 H        -0.7466567528       -7.9544865615        2.6190807350
 H        -1.0763972464      -11.4121785901       -1.1840573480
 H        -1.8526899135       -9.8364106418       -0.8339125462
 H        -2.7560476108      -11.1813292696       -1.6702466055
 H        -2.1730754461      -12.4019093263        3.2384959141
 H        -0.5380867023      -11.7826011160        3.2683625539
 H        -1.0274022228      -12.8588746806        1.9019016180
 H        -3.9053014339      -10.9472570923        2.7697634313
 H        -3.7709932492       -9.5593935279        1.5601624596
 H        -2.8846541239       -9.4693073106        3.1492292389
 H         0.8594891837       -8.2528464286       -3.1571601774
 H         0.8284018008       -6.6248653981       -3.8922509321
 H        -0.7098872667       -7.4279570499       -3.4288486308
 H         2.3002899196       -5.8709175990       -2.1118290987
 H         2.2932688507       -7.2706555351       -0.9884925607
 H         1.7702863242       -5.7075667804       -0.3990901256
 H        -5.3078516232       -1.4386174809       -2.6183062230
 H        -5.7663525263       -3.0461673207       -2.7454521235
 H        -6.3876139817       -1.8418024108       -3.9295463488
 H        -4.7360249891       -4.4432832611       -4.8956180568
 H        -3.6594617066       -3.6805995392       -5.9326732353
 H        -5.4093355743       -3.3501925201       -6.0115034574
 H        -2.7625061939        3.4515287732       -1.7508527485
 H        -1.1335945621        4.0845115546       -1.8913995113
 H        -1.3815857893        2.4110463198       -2.3029636995
 H        -2.9762705048        5.3020052073       -5.0319449631
 H        -1.6526886439        5.6989354905       -3.8660920560
 H        -3.2914594397        5.3675661263       -3.2285132666
 H         3.2579426024        2.5988698319       -6.6087015190
 H         3.9298921508        1.2900041024       -5.6625038858
 H         2.6200633156        2.4110353464       -5.0237042981
 H         1.4030782333       -0.2038328764       -8.1677762907
 H         2.9017821648       -0.7572141609       -7.6010031390
 H         2.8402804142        0.9286986968       -8.3332169928
 H         3.8909967347       -5.8186415737       -4.2535144831
 H         2.5323120780       -4.7314155279       -3.8074662586
 H         4.1576565238       -4.1248201853       -3.6050288892
 H         5.5402272028       -5.2342013921       -5.6180364274
 H         5.8746110048       -3.5679263673       -6.0549027497
 H         5.1671853891       -4.4955478901       -7.2678691695
 H        -0.9728946219       -5.4210588018       -7.7400477435
 H        -2.5708302257       -5.4379891745       -8.6410000090
 H        -2.0542143154       -4.1056661341       -7.7309028203
 H        -0.0708417976       -6.2454455352      -10.2334871663
 H        -0.6129352308       -5.4065960889      -11.5927456308
 H        -1.8369747044       -6.1225482645      -10.8172142847
 H        -2.1216072840        2.0859930102       -9.5199653030
 H        -3.7274441505        1.3398638060       -8.9860916013
 H        -3.7907135655        2.7945275188       -9.9401834929
 H        -5.1150645421        0.3588422630      -10.2197768816
 H        -4.6845526823       -0.5460649111      -11.7079399311
 H        -5.3063162422        1.0826711322      -11.7204683915
 H        -2.1188263625       -0.0732378842      -15.4996219631
 H        -2.9763543548       -1.0133589916      -16.8577004398
 H        -3.6332316944       -1.0913352642      -15.3650112586
 H        -2.2900019151        1.8288255390      -16.9536802308
 H        -3.6484127692        2.8917066698      -16.7429329935
 H        -3.6852813247        1.7478241538      -18.2593222572
 H        -9.2597982445       -3.0459428821      -16.3083834580
 H       -10.7906668407       -3.2617701743      -17.3533864674
 H       -10.3987519742       -1.8534379519      -16.2975449282
 H        -9.0437234959       -3.5502914072      -19.4754843288
 H        -9.1870755689       -2.0748447870      -20.3772311803
 H       -10.6153115548       -2.7990331809      -19.7757598843
 H       -12.3759949525        3.3316994774      -22.5445475461
 H       -11.9145329919        2.9062461688      -20.9139190524
 H       -13.5699596633        2.6765713107      -21.3905426129
 H       -12.5692835254        1.0456494120      -24.2816732203
 H       -13.9115844775        0.7100942438      -23.1108779498
 H       -12.5591562546       -0.3669665546      -23.4924933775
 H        -6.2894088342        2.6353419711      -24.3179458011
 H        -5.3385554499        3.8357578901      -23.4833241182
 H        -7.1671172390        3.9573985553      -23.5895953379
 H        -5.2612060798        1.4229989599      -20.5760280395
 H        -4.4364562763        2.7711874893      -21.4256376036
 H        -4.6338193545        1.3507565949      -22.2168594682
 Na       -7.5643562241        1.0532789896      -19.0485942685
 Na       -1.0250073501       -1.1670133839       -7.6821792352
