232

 C        -7.7256446536        5.1052010954      -21.6206359667
 C        -7.5811784589        3.6505486812      -21.1372976748
 O        -7.9406036853        3.3560691969      -20.0645897642
 C        -6.8145210791        2.6810376333      -22.2008071580
 C        -7.4933966365        1.2825741048      -22.2581050953
 O        -7.5327404184        0.5694056059      -21.2992696127
 C        -8.2902280042        0.7514366955      -23.5610920738
 C        -9.8057717544        0.5283060445      -23.3016548631
 C       -10.4540980647        1.7192358428      -22.4344233592
 O        -9.8822538092        2.6982752843      -22.0344267920
 C       -12.0128374484        1.3165669896      -22.1614907120
 C       -11.8995974540        0.2069197778      -21.0701663885
 O       -11.5480259511       -0.9264274603      -21.3421542978
 C       -12.3221896627        0.5680580456      -19.6393640994
 C       -11.8943988112       -0.5530225740      -18.6163408540
 C       -10.3858088486       -0.5341025393      -18.3651795981
 O        -9.8057948147        0.5353141326      -18.5486341816
 C        -9.6188437706       -1.7969420972      -18.1568021224
 C        -8.1158910275       -1.3092213433      -17.7629783400
 O        -7.2470500659       -1.4608138756      -18.6055937593
 C        -7.8484133249       -0.6775239788      -16.4027501853
 C        -6.3542848429       -0.5758533163      -16.0350814810
 C        -5.5217733237        0.5323089937      -16.7129386966
 O        -6.0342695862        1.3595893512      -17.4280151957
 C        -3.9645980684        0.7759786348      -16.2382184888
 C        -4.0367128476        1.3886660986      -14.6814193316
 O        -4.5820984832        0.6246362876      -13.8957436566
 C        -3.6896641750        2.8201651341      -14.2135505647
 C        -3.7420896971        2.7908263838      -12.6803690373
 C        -2.7704643944        1.7130874215      -12.1146232764
 O        -1.7792057084        1.3547819773      -12.7391578192
 C        -3.0708573892        0.9348164108      -10.7828526893
 C        -1.9881227608       -0.2466344854      -10.6415789270
 O        -1.4107225924       -0.4120133199       -9.6126371525
 C        -2.0142762827       -1.3457111859      -11.7410275758
 C        -1.1078547916       -2.5777193721      -11.4126239835
 C        -1.8094241211       -3.4623394065      -10.2547157378
 O        -2.9838036189       -3.4644202025      -10.1412113712
 C        -0.8912587467       -4.4493864566       -9.4851113183
 C         0.4520948702       -3.7638582209       -8.9133792653
 O         0.4851568729       -2.6245581423       -8.4105417933
 C         1.7144454838       -4.5388908786       -9.1296601316
 C         2.8694132847       -4.3135216694       -8.1070680729
 C         2.5828850914       -4.4319847924       -6.6758017074
 O         1.5496478299       -4.8820526794       -6.1905127060
 C         3.7553476796       -4.1986617536       -5.6502487953
 C         3.5112367496       -2.6300501720       -5.2870638077
 O         3.7883697236       -1.8729559471       -6.2095649054
 C         2.6663930256       -2.2099262797       -4.1786265692
 C         2.2845559327       -0.6617655354       -4.3187816566
 C         1.3523035032       -0.2869669274       -5.5471730950
 O         0.2809551309       -0.8676048790       -5.5940556551
 C         1.8314426825        0.8955549183       -6.5405209956
 C         0.5863985010        1.7711189044       -6.7814833594
 O        -0.4576547571        1.2642420784       -7.2402833077
 C         0.6916603906        3.2862745605       -6.7444290170
 C        -0.5671541165        3.8187287793       -6.0737819490
 C        -0.5473377174        3.5737630958       -4.5721080205
 O         0.4881316784        3.2712070051       -3.9848470110
 C        -2.0654748270        3.6234592091       -3.9174655678
 C        -3.0598277764        2.6253281933       -4.5668840165
 O        -4.1932060596        2.9808802002       -4.7879186168
 C        -2.6689572667        1.1729645519       -4.7115384186
 C        -3.9245661620        0.2282412516       -4.4515553067
 C        -3.5261029003       -1.2644886741       -4.9273398276
 O        -2.5532220137       -1.4535962367       -5.6068049930
 C        -4.3082249359       -2.5275899112       -4.4175669317
 C        -3.2425231935       -3.1521911023       -3.3659613519
 O        -2.8570989660       -2.4655555552       -2.4296891603
 C        -2.3198472147       -4.3331964360       -3.7028331308
 C        -1.6798257201       -4.7249427402       -2.4018424678
 C        -0.1539547422       -4.9252861779       -2.3924574342
 O         0.6420092027       -4.1272825522       -2.8244833958
 C         0.4389003162       -6.3832078887       -1.8523218749
 C        -0.4798261901       -6.9707042367       -0.9033042984
 O        -1.6122204026       -7.3591936914       -1.2500626584
 C        -0.1685482269       -7.3382602794        0.5617161607
 C        -1.2052051801       -8.2610472871        1.1508807811
 C        -0.7726122879       -9.7252172237        1.2631640367
 O         0.4103026166       -9.9859637222        1.1899959128
 C        -1.8035586510      -10.8671432568        1.6457439375
 C        -2.4569891710      -11.4881497024        0.3006768817
 O        -2.8800330091      -12.6169272296        0.2788055309
 C        -2.2856829975      -10.6868073348       -0.9741535225
 C        -1.0405440272      -11.9601972651        2.3865309838
 C        -3.0350084508      -10.3029355221        2.4971348318
 C         0.3596669604       -7.3228150562       -3.0855100645
 C         1.8855787367       -6.2268463831       -1.3394250990
 C        -5.6305741025       -2.1599720416       -3.7764752300
 C        -4.4299720640       -3.5413165879       -5.5356665123
 C        -1.8615134191        3.2042121132       -2.4504800626
 C        -2.6090995439        5.1345202608       -4.0870375280
 C         3.0943854253        1.6242420474       -6.0275319619
 C         2.1998938548        0.1949942683       -7.8426047182
 C         3.5413414143       -5.1774360169       -4.4548264770
 C         5.1848928827       -4.3215013374       -6.3130796499
 C        -1.6910903579       -4.9584190454       -8.2797454031
 C        -0.6248520319       -5.6787861206      -10.4515945288
 C        -2.8893995976        1.7851155590       -9.5328208120
 C        -4.5284123491        0.3274649824      -10.6458769273
 C        -3.3739574279       -0.6638637355      -16.2907815424
 C        -3.1890386918        1.9027655239      -17.1028701058
 C       -10.2613495100       -2.6210781641      -17.0445635486
 C        -9.4742253175       -2.5811875961      -19.4533040462
 C       -12.9412059712        2.4338103807      -21.7477043547
 C       -12.5811580124        0.6486944514      -23.4392551367
 C        -6.6469178255        3.2571806098      -23.6807829152
 C        -5.3985164349        2.5412471516      -21.5486785479
 H        -8.2363538906        5.3476943398      -22.5679427723
 H        -6.6617048671        5.4134547501      -21.6544600595
 H        -8.2416628645        5.8761679121      -20.9393475813
 H        -7.7019396389       -0.1875769198      -23.7158691781
 H        -8.2933223643        1.4422822997      -24.3930707373
 H       -10.0772755172       -0.3345706813      -22.7002827516
 H       -10.2766864431        0.4390720150      -24.2534118564
 H       -13.4071534152        0.4087804769      -19.6239788516
 H       -11.8638894592        1.5482381725      -19.3436799322
 H       -12.1224427863       -1.5568740762      -18.9808403717
 H       -12.4119031978       -0.3958987628      -17.6900861051
 H        -8.3610465947       -1.2169986275      -15.6190340369
 H        -8.1648401929        0.4452289183      -16.5236799541
 H        -5.8859780382       -1.5819386235      -16.2039011174
 H        -6.3175954826       -0.3416820281      -14.9274506056
 H        -4.4030285124        3.4976439769      -14.7174866157
 H        -2.6864564938        3.1766352427      -14.4395592510
 H        -4.7395155480        2.6513055365      -12.2897048108
 H        -3.5827919490        3.8482883011      -12.3624944977
 H        -1.6226593987       -0.8124712634      -12.6514184501
 H        -3.0376307263       -1.7884252317      -11.9356378816
 H        -0.1252679187       -2.3621406334      -11.0430897392
 H        -0.8930703780       -3.1753297172      -12.2346219429
 H         2.0957674931       -4.1831401513      -10.1215793499
 H         1.6348925314       -5.7215593196       -9.3974425428
 H         3.4711040449       -3.4256887694       -8.2734091512
 H         3.6772669124       -5.0885494280       -8.2460373717
 H         3.1995766180       -2.1367968936       -3.2152001259
 H         1.7743103273       -2.8422169774       -4.0494268830
 H         3.2355434626       -0.1474428670       -4.2820426552
 H         1.7360839578       -0.2429404227       -3.4837514931
 H         0.5916365354        3.7842931788       -7.7773962567
 H         1.5156978810        3.6224132085       -6.2383331138
 H        -1.3770166964        3.4095954196       -6.6306488206
 H        -0.6588210439        4.9339215923       -6.1472602024
 H        -1.6867872239        0.9497645620       -4.1948109502
 H        -2.3338352197        1.0026239051       -5.7799709809
 H        -4.8269845541        0.7289993058       -4.8998214432
 H        -4.1779836372        0.1840158350       -3.4144779526
 H        -1.6652467315       -3.9236672488       -4.4800427315
 H        -2.8384890564       -5.2132334692       -4.1234140281
 H        -2.1136368961       -5.6770622801       -1.9914310660
 H        -1.9765991649       -3.9666899135       -1.6676843901
 H        -0.1319267445       -6.4055032610        1.1716857139
 H         0.8124563328       -7.8277913523        0.7029003276
 H        -2.1367475365       -8.1660172913        0.6543215164
 H        -1.4138505666       -8.0491002211        2.2038552653
 H        -1.2351568624      -10.8125398746       -1.1517864809
 H        -2.4223951855       -9.6121678031       -0.7570931292
 H        -2.9299126860      -11.0109390278       -1.7905757651
 H        -1.6298263556      -12.8733572549        2.4550707843
 H        -0.7591755755      -11.6862863516        3.3793815384
 H        -0.1396667772      -12.1005125447        1.8437921640
 H        -3.7547237651      -11.0756197992        2.3814875780
 H        -3.4739548488       -9.3854622684        2.0814436252
 H        -2.7206643793      -10.3563686986        3.5278451559
 H         0.4331181046       -8.3105635958       -2.5511415428
 H         0.9623494050       -7.0509228846       -3.9315229788
 H        -0.6724138238       -7.3544014492       -3.4294134472
 H         2.4939906885       -5.6718357757       -2.0339243812
 H         2.3351242502       -7.1963233224       -1.2518806619
 H         2.0006540885       -5.8583284709       -0.3674748230
 H        -5.4508650428       -1.4651346642       -2.9808079162
 H        -6.1182920692       -2.9801830688       -3.2818090866
 H        -6.2979341233       -1.6692414914       -4.5547757593
 H        -4.9066588389       -4.5034189339       -5.3130832793
 H        -3.4726734828       -3.8535183623       -5.9120914547
 H        -5.0982701445       -3.0537432637       -6.3114528244
 H        -2.6645030513        3.2959467228       -1.7638248249
 H        -1.0732184520        3.8281582405       -2.0733708315
 H        -1.3627993124        2.2170258526       -2.4966612939
 H        -2.4940529881        5.3462645095       -5.1485085192
 H        -2.0532746557        5.7405927151       -3.3095803900
 H        -3.6379175913        5.1017336361       -3.8177020279
 H         3.4224857495        2.5264181873       -6.5900217930
 H         3.8573499712        0.9651980073       -5.7661076526
 H         2.8744477638        2.0029824821       -5.0079653499
 H         1.5352522440       -0.6109705217       -8.1097943497
 H         3.1726794267       -0.2551583086       -7.6876128726
 H         2.2585610060        0.8873224291       -8.6451093222
 H         3.7332355730       -6.1872331833       -4.8358901100
 H         2.5893219446       -5.0171965495       -4.0072401195
 H         4.3953937687       -5.2083668682       -3.7382970483
 H         5.2846521093       -4.9587871728       -7.3087890312
 H         5.8042978292       -4.8623211519       -5.5973333180
 H         5.5932245877       -3.3691111299       -6.3863082228
 H        -1.2889515758       -5.9255811598       -7.9050186479
 H        -2.7651790207       -5.1807946583       -8.4797230049
 H        -1.6397694971       -4.2694471605       -7.4342547776
 H        -0.3744527558       -6.6408963820       -9.9476123268
 H         0.1102452045       -5.5227039687      -11.1242321457
 H        -1.5180936797       -5.8565292185      -11.1192093825
 H        -1.8188190783        2.1626766368       -9.5186989354
 H        -3.0830513446        1.2211119557       -8.6442701475
 H        -3.5191385641        2.6009044379       -9.7077096951
 H        -4.4760596273       -0.4881144088       -9.9011892637
 H        -4.8110445678       -0.0395593294      -11.7076625558
 H        -5.1427245213        1.1392249575      -10.2333315101
 H        -2.3001150203       -0.6076543317      -16.4408428459
 H        -3.8475460455       -1.2280791836      -17.1038863864
 H        -3.6705264772       -1.1859637862      -15.3500077117
 H        -2.4353020808        2.3346162675      -16.5612109663
 H        -3.9116043856        2.5917786428      -17.5439961420
 H        -2.7679986824        1.3445575185      -17.9584567157
 H        -9.7143198157       -3.6044552755      -17.0583302342
 H       -11.2820530877       -2.9264712736      -17.2530766030
 H       -10.0083761437       -2.2896465530      -16.0961139147
 H        -8.7748352161       -3.5252126948      -19.3998919879
 H        -9.1503952862       -1.9695896758      -20.2208447849
 H       -10.4917458182       -2.9887806328      -19.8315063665
 H       -13.8682043102        2.3013118533      -22.2551576167
 H       -12.6581952860        3.4851363649      -21.9243246622
 H       -13.1038759970        2.3193087048      -20.6902536648
 H       -12.4716229210        1.2721197081      -24.3669314147
 H       -13.5773938058        0.4159136051      -23.2234951110
 H       -12.2496694527       -0.4032323901      -23.7006239850
 H        -5.8763702734        2.8060983757      -24.2629048848
 H        -6.5589639615        4.2915014131      -23.6566420194
 H        -7.5655387540        3.0758437801      -24.3145097850
 H        -5.4454426332        2.0143462659      -20.5849615185
 H        -4.8977339219        3.4640069180      -21.4911265524
 H        -4.6958852602        1.8654721350      -22.0682671925
 Na       -7.5762736676        1.2128022934      -19.0667211378
 Na       -1.0077580337       -1.0534350317       -7.2526411402
