232

 C        -7.8908621505        5.1273872146      -21.7419591381
 C        -7.6984881397        3.6723164092      -21.3115174536
 O        -8.0267360884        3.3294247090      -20.1494604638
 C        -6.9298492445        2.7125106802      -22.2223269836
 C        -7.6055938382        1.3095921950      -22.2230884620
 O        -7.4801051452        0.6829479419      -21.2240898850
 C        -8.2998663197        0.7708240363      -23.3926526429
 C        -9.7575429146        0.6192961731      -23.2647658086
 C       -10.5098617936        1.5912565379      -22.4740960529
 O        -9.9716431692        2.5584492057      -21.9686873320
 C       -12.0721488302        1.2973956738      -22.2354338089
 C       -11.8096343203        0.2070092942      -21.0091945157
 O       -11.4250186406       -0.8780750638      -21.3497662897
 C       -12.3279181913        0.5681592383      -19.6309062909
 C       -11.9385443981       -0.5767396906      -18.6435981120
 C       -10.3485071856       -0.5077780151      -18.4094749051
 O        -9.7973672987        0.5905034957      -18.5783879606
 C        -9.5105912962       -1.8437392128      -18.1099312638
 C        -8.0476445862       -1.3453712253      -17.7222473422
 O        -7.0693189110       -1.3462427598      -18.4515727082
 C        -7.8844506122       -0.6929131564      -16.2616887878
 C        -6.3454342662       -0.5175837496      -16.0458740268
 C        -5.6429931029        0.7050026357      -16.6160170922
 O        -5.9984039896        1.3275978838      -17.5867212423
 C        -4.1056659457        0.8033549950      -16.1920581001
 C        -4.1054344591        1.2587631098      -14.7150916466
 O        -4.5990645739        0.4703387327      -13.9113987785
 C        -3.6131102236        2.6360454456      -14.1301005616
 C        -3.6038045440        2.6276291943      -12.5657538559
 C        -2.7920942456        1.4869648990      -12.1016776942
 O        -1.8539247086        1.1844649933      -12.7910783968
 C        -2.9937510653        0.8753504795      -10.7144750681
 C        -2.0155256703       -0.2756064631      -10.5253563460
 O        -1.3776326755       -0.4326607580       -9.5161636022
 C        -1.9778747260       -1.3247788516      -11.6884487002
 C        -1.0651283041       -2.5680791130      -11.3526425793
 C        -1.7630400241       -3.4627946199      -10.2751686352
 O        -2.9636692020       -3.4353697450      -10.1469300867
 C        -0.8802584079       -4.4755450241       -9.4145973507
 C         0.4252506571       -3.7743186152       -8.8190552166
 O         0.3568595620       -2.7081706944       -8.2303627811
 C         1.7587272072       -4.4560575039       -9.1120917731
 C         2.9252373437       -4.2930295951       -8.1519293418
 C         2.5650943136       -4.4815528215       -6.6377295103
 O         1.4154978786       -4.5531117279       -6.3146589614
 C         3.7688703798       -4.2213696333       -5.5899386416
 C         3.4355247155       -2.6808218457       -5.3211365657
 O         3.8518345645       -1.8405517361       -6.1237985634
 C         2.4829682843       -2.2572818528       -4.1975725975
 C         2.3277960986       -0.6805512215       -4.3088227246
 C         1.4576568119       -0.2938134323       -5.4770872214
 O         0.3215478834       -0.7372790247       -5.6350537860
 C         1.8836892986        0.7426813601       -6.5274635033
 C         0.6129143479        1.8117235231       -6.8613152384
 O        -0.5171266627        1.4172492603       -7.1618940409
 C         0.8051327957        3.3128026384       -6.7312373758
 C        -0.4898842162        3.9221914908       -6.1340169166
 C        -0.6470285404        3.5961231993       -4.6445620788
 O         0.3008857210        3.3617500324       -3.9322830388
 C        -1.9773754313        3.6658982373       -3.8826919000
 C        -3.0854999188        2.6237457753       -4.5138659857
 O        -4.1496334289        3.0550118692       -4.9242902028
 C        -2.6577281585        1.1816126280       -4.7714312375
 C        -3.7419102807        0.1027322335       -4.5744088518
 C        -3.4432495114       -1.2943202221       -4.9795977364
 O        -2.4751356576       -1.5540466184       -5.6597215606
 C        -4.2471780732       -2.5226935504       -4.4839129925
 C        -3.1924653656       -3.0541884235       -3.4083095290
 O        -3.0811433167       -2.3464322277       -2.4439307856
 C        -2.2672073656       -4.2272260481       -3.7444312079
 C        -1.6452652558       -4.8458452952       -2.5173483265
 C        -0.1051264680       -5.1041469664       -2.5774715394
 O         0.5725259567       -4.1550104199       -2.7980055476
 C         0.4346139958       -6.4232029253       -1.9167000121
 C        -0.5893395345       -7.0104786758       -0.8970494433
 O        -1.6547135079       -7.3949792360       -1.3672063065
 C        -0.1925943311       -7.3366873126        0.6144161028
 C        -1.2795379194       -8.1848519300        1.3052883200
 C        -0.7267651341       -9.6994014016        1.3067166312
 O         0.3988791986       -9.9711574049        1.1415055205
 C        -1.7195007113      -10.9006217980        1.6014497137
 C        -2.2823621354      -11.4854233478        0.2670276688
 O        -2.7437016528      -12.6126452615        0.3695091452
 C        -2.3674241307      -10.5398389032       -1.0053116921
 C        -0.9913682359      -11.9801320616        2.2924039046
 C        -2.9229138846      -10.4842510017        2.4131186160
 C         0.4998551458       -7.3972391410       -3.2628035804
 C         1.8104084810       -6.0544809294       -1.3186344002
 C        -5.6543459148       -2.3094835645       -3.7671318378
 C        -4.4044919707       -3.5404629506       -5.7159606076
 C        -1.7680241664        3.2626485455       -2.3408884286
 C        -2.5563255068        5.0764055974       -3.9614438782
 C         3.0201325874        1.6041012088       -6.0881619576
 C         2.1882847811        0.1125576674       -7.9838310244
 C         3.6465029722       -5.1543121007       -4.3790843433
 C         5.1677145551       -4.4133362266       -6.3216427215
 C        -1.5832679898       -5.0244321766       -8.1184155600
 C        -0.6594845068       -5.6309210167      -10.3895664060
 C        -2.6865888880        1.9793697602       -9.5620811630
 C        -4.4298304347        0.2917041071      -10.5640218422
 C        -3.5118303691       -0.6161774871      -16.2475157485
 C        -3.3855769750        1.8261059609      -17.0764371931
 C       -10.3270381972       -2.6381460334      -16.9759949071
 C        -9.5689006660       -2.5412515413      -19.4390127166
 C       -12.8430127927        2.5453707211      -21.8123261924
 C       -12.6586335227        0.6006397110      -23.4726392644
 C        -6.7653591907        3.3697600081      -23.6696846565
 C        -5.5669476457        2.6237190005      -21.4959973088
 H        -8.4824082894        5.2023188020      -22.6858765209
 H        -6.9761932406        5.7277057099      -21.7824336849
 H        -8.6008335030        5.7126942070      -21.0842521291
 H        -7.8340105124       -0.2253273483      -23.5225979769
 H        -8.1007225728        1.3576366923      -24.2388601110
 H        -9.9756899738       -0.2551744131      -22.6335333997
 H       -10.1975426596        0.4170443587      -24.2209277485
 H       -13.4271285463        0.6676378583      -19.6119146362
 H       -11.6635872972        1.3857279990      -19.4169351006
 H       -12.1428674078       -1.5769127368      -19.0337502581
 H       -12.4110194845       -0.4387072267      -17.6491443045
 H        -8.2037913026       -1.4060753668      -15.4465754283
 H        -8.3572099055        0.2786240618      -16.2327617291
 H        -5.9388460932       -1.4202766695      -16.5008055544
 H        -6.1262619721       -0.5580852649      -14.9254779135
 H        -4.2160141950        3.4228016833      -14.5604485422
 H        -2.5268275252        2.8720264741      -14.4180415896
 H        -4.6214388538        2.5420493220      -12.1723682914
 H        -3.4104314085        3.6482912500      -12.2296826934
 H        -1.6193850228       -0.8203654340      -12.5682890296
 H        -2.9869159244       -1.8027961870      -11.9013769025
 H        -0.0605260962       -2.4422064071      -11.0415483364
 H        -0.9334315418       -3.2725264552      -12.2587638109
 H         2.1946449055       -4.2548273103      -10.1816735107
 H         1.7249370806       -5.6458458748       -9.2024407575
 H         3.4923747306       -3.3133622406       -8.2115054179
 H         3.7091187943       -4.9393381145       -8.5236599408
 H         2.8478735981       -2.3110834400       -3.2054319350
 H         1.4865744198       -2.6956351084       -4.2007714713
 H         3.2734517787       -0.2022972149       -4.2084386547
 H         1.6983449198       -0.2212374766       -3.4886663092
 H         0.9512489160        3.8136093438       -7.7224043815
 H         1.6213637697        3.5416349728       -5.9839652053
 H        -1.3163765682        3.5684422860       -6.7550723732
 H        -0.4680499407        4.9877468436       -6.1416788385
 H        -1.7666645310        1.0307801089       -4.2112817071
 H        -2.2117506313        1.0576616827       -5.7766292132
 H        -4.6401627957        0.4187396954       -5.1126164016
 H        -4.0950609917        0.0931515016       -3.5573681446
 H        -1.5123563833       -3.6944277504       -4.3715885063
 H        -2.6414586625       -4.9830213805       -4.3793232195
 H        -2.1713639323       -5.7377756175       -2.2152023621
 H        -1.8064327081       -4.1732989676       -1.7012004320
 H        -0.0031540217       -6.3266591585        1.0546011838
 H         0.7447163297       -7.9565033653        0.7368361852
 H        -2.2159476294       -8.1017679021        0.7531368376
 H        -1.5442562661       -8.0943253340        2.4309155762
 H        -1.4077695838      -10.1564129795       -1.3086711091
 H        -2.9940578205       -9.6486797798       -0.7093122427
 H        -2.9386349560      -11.0556537908       -1.7857716878
 H        -1.3691107852      -12.8878456492        1.9019369124
 H        -1.1396600466      -12.0325471548        3.3649310059
 H         0.0912673441      -11.8937551102        2.0915725349
 H        -3.6244157979      -11.3422770376        2.4301802280
 H        -3.4235341730       -9.6428826033        1.8760395676
 H        -2.5549570328      -10.3680582594        3.4184936316
 H         0.7841308026       -8.3281376487       -2.8421648971
 H         0.9451456524       -6.9335768460       -4.0593307126
 H        -0.5001349089       -7.5745167088       -3.6508467363
 H         2.4207451214       -5.4348010324       -2.0340805206
 H         2.3766501703       -6.9046095792       -1.0089976703
 H         1.7330061685       -5.5125040972       -0.3447676486
 H        -5.6275682880       -2.1122788973       -2.6800953588
 H        -6.3240656095       -3.1992629664       -3.8942516880
 H        -6.1068514889       -1.4863547685       -4.2739531996
 H        -4.9686213569       -4.3546780637       -5.3798041972
 H        -3.5457902021       -4.0499579361       -6.0118445808
 H        -4.9735438747       -3.1080456824       -6.5352213670
 H        -2.7040550161        3.3658620663       -1.8127592479
 H        -1.0383912222        3.8548417482       -1.7788684509
 H        -1.4039721178        2.2647152827       -2.3459438658
 H        -2.5790510908        5.4393842241       -4.9473241805
 H        -2.0712876120        5.6080461189       -3.1310825422
 H        -3.6047528504        4.8584782719       -3.5708540487
 H         3.1867758389        2.4717200155       -6.8062607127
 H         3.9296477116        1.0179453061       -5.8708015884
 H         2.9479665627        2.0103592506       -5.0853745991
 H         1.5121133938       -0.6889973673       -8.1613472429
 H         3.2367438481       -0.2897927273       -8.1027798416
 H         1.9646476045        0.8238158824       -8.7849842459
 H         3.7784412121       -6.1888720515       -4.7630210852
 H         2.7406784292       -4.9280575604       -3.8274011235
 H         4.5418743323       -5.2206661779       -3.7871906137
 H         4.9721631317       -4.9192626514       -7.2056210961
 H         5.7595990363       -5.1224037909       -5.7235130729
 H         5.7700968296       -3.4541358595       -6.4829935843
 H        -1.0981125641       -5.8347188732       -7.6391441035
 H        -2.5580546935       -5.5105201205       -8.4710288640
 H        -1.8235067356       -4.2339438368       -7.3245204526
 H        -0.1867878692       -6.4703813188       -9.9732633833
 H        -0.0929854044       -5.3633815459      -11.3033097444
 H        -1.6090516239       -6.0242414085      -10.7246134152
 H        -1.7761598376        2.5611880059       -9.6969113217
 H        -2.5731900407        1.3963643361       -8.6594351968
 H        -3.5398185600        2.6639606319       -9.6254941235
 H        -4.3569039616       -0.7153825598      -10.0886381713
 H        -4.7932131580        0.2005034119      -11.6056416358
 H        -4.9736398996        0.9690959047       -9.9201226189
 H        -2.4080793618       -0.5954900965      -15.9453565039
 H        -3.5525412123       -0.9507423549      -17.2642908731
 H        -4.0701240588       -1.2362786992      -15.6085466046
 H        -2.4440417098        2.1516619241      -16.5707484704
 H        -4.0192031565        2.6047021213      -17.4415832678
 H        -3.0279179147        1.2685455097      -17.9765530427
 H       -10.2157940875       -3.7152113037      -16.9523181563
 H       -11.4654141237       -2.5532090521      -17.1132967281
 H        -9.9264145113       -2.2953278100      -16.0732325314
 H        -9.1305106289       -3.5646537406      -19.3302285486
 H        -9.0408113406       -2.0237634736      -20.3030779401
 H       -10.5906704402       -2.7042647154      -19.8005867796
 H       -13.9058092775        2.3560976169      -21.9170542278
 H       -12.6783441055        3.3830817390      -22.4978571314
 H       -12.6035787746        2.8207263147      -20.8534657951
 H       -12.4216392351        1.0122593387      -24.4495922504
 H       -13.7544717996        0.5380184928      -23.3766592971
 H       -12.4625280970       -0.4978229173      -23.4863586013
 H        -6.1236056028        2.7118407102      -24.2580047531
 H        -6.4297446256        4.4373731450      -23.6304230109
 H        -7.6519356930        3.4501411522      -24.2578506827
 H        -5.5981811890        1.9485887485      -20.6544564700
 H        -5.0915279672        3.5899675943      -21.2538335591
 H        -4.8783595135        2.0821894642      -22.0927074232
 Na       -7.5908621122        1.1943339381      -19.1406604762
 Na       -0.9629819354       -1.0268935807       -7.2697648118
