232

 C        -8.5063722790        5.0496516582      -21.7437133220
 C        -7.9604287663        3.8322056710      -21.1973421241
 O        -8.2248272532        3.4898609182      -20.1187336155
 C        -6.9480597028        2.8243993058      -22.2408060254
 C        -7.5677276247        1.4069938672      -22.3046979209
 O        -7.5586871568        0.6268863521      -21.3323118671
 C        -8.2508985382        0.8606687251      -23.5939528698
 C        -9.7861689629        0.3959521048      -23.3529242783
 C       -10.5769260164        1.4333193693      -22.5493091128
 O        -9.9325032906        2.3670392423      -22.0947027355
 C       -12.0735089568        1.2055163199      -22.3198396561
 C       -11.9133866277        0.2599298887      -21.0598465394
 O       -11.3969794752       -0.8387748723      -21.2155105415
 C       -12.4287462973        0.6261379183      -19.5848215754
 C       -11.9194747150       -0.4524263418      -18.5789307222
 C       -10.3632983622       -0.3358982083      -18.4507312350
 O        -9.7302030017        0.6805674271      -18.5650926492
 C        -9.5737520664       -1.6914173846      -18.0338410772
 C        -8.1524859937       -1.2516678165      -17.6477178585
 O        -7.2226760563       -1.3751121337      -18.4368312318
 C        -7.9869260234       -0.6881660080      -16.2288670523
 C        -6.5369298975       -0.4570603114      -15.9180665204
 C        -5.7143278322        0.5301325876      -16.7122315362
 O        -6.1546742937        1.3086235408      -17.5392764026
 C        -4.2247189073        0.7619906231      -16.1456376216
 C        -4.2808852791        1.0703866417      -14.5625073809
 O        -4.7107104404        0.2634349358      -13.7582071740
 C        -3.6902694348        2.3780586289      -14.0978888612
 C        -3.5766825092        2.3960987888      -12.5872438903
 C        -2.6579056411        1.3498765667      -12.1102260046
 O        -1.7398738133        0.9277990913      -12.8338365532
 C        -2.8450623032        0.8093866070      -10.6568752063
 C        -1.8432654904       -0.3826411521      -10.4823475810
 O        -1.2376430559       -0.5476684429       -9.4702127261
 C        -1.7822091759       -1.4674586793      -11.5129109703
 C        -0.9741172496       -2.6408278293      -11.1069524624
 C        -1.8315894211       -3.5395919826      -10.0542094389
 O        -2.9978980931       -3.4380892504       -9.8520743920
 C        -0.9443096253       -4.6128168043       -9.3004342647
 C         0.3839422195       -3.8404643052       -8.7489415260
 O         0.4283091265       -2.8340398121       -8.0507187834
 C         1.7325580545       -4.4854289245       -9.1299934339
 C         2.8628682410       -4.0226040683       -8.2039079279
 C         2.5590695952       -4.2345540321       -6.7353993747
 O         1.4164107884       -4.4234836783       -6.3333724526
 C         3.7050826569       -4.1268728133       -5.6006437174
 C         3.5237122406       -2.6052565578       -5.3693560387
 O         4.1786762762       -1.8462085596       -6.0519151784
 C         2.4740438216       -2.2275417561       -4.4330057269
 C         2.3930743626       -0.7234454659       -4.3152344358
 C         1.4772250634       -0.1671342004       -5.4502587151
 O         0.4073920381       -0.7587787601       -5.5465949804
 C         1.9269550047        0.7772917925       -6.5245872968
 C         0.6811022549        1.8354833596       -6.7337038916
 O        -0.3738044991        1.3550995039       -7.0862285083
 C         0.8156503421        3.4103428976       -6.5376057500
 C        -0.4872301394        4.0177065210       -5.9887291919
 C        -0.6277053024        3.6730057465       -4.5155186241
 O         0.3864613781        3.3070063646       -3.9495707237
 C        -1.9676253252        3.7101159833       -3.8377919796
 C        -3.0059916839        2.6496905358       -4.6347491005
 O        -4.0459524711        2.9506718048       -5.1576325138
 C        -2.5484819668        1.1568692774       -4.7235257945
 C        -3.6860052261        0.1133231452       -4.6942777916
 C        -3.4282881526       -1.3101143967       -5.2762021153
 O        -2.4971067104       -1.5584052139       -6.0279943625
 C        -4.2500553593       -2.5105909419       -4.6745808223
 C        -3.2762519344       -3.0713276407       -3.4726330312
 O        -3.3317896442       -2.4895303659       -2.3977320658
 C        -2.0136511002       -3.8662648110       -3.7231927415
 C        -1.8014706091       -4.9750473936       -2.6973065050
 C        -0.3246168003       -5.1922733927       -2.5863656470
 O         0.4941285084       -4.3310568512       -2.9296841698
 C         0.3262412848       -6.4632864906       -1.9077796414
 C        -0.7005728938       -7.2203298563       -0.9824495648
 O        -1.7157819956       -7.7144299324       -1.4556673729
 C        -0.3210283425       -7.2382310935        0.5333051134
 C        -1.1682718219       -8.1928576376        1.3637304019
 C        -0.6596897419       -9.6901893180        1.2351075973
 O         0.5600671904       -9.8508185622        0.9927553270
 C        -1.6114982462      -10.8767031785        1.5329374148
 C        -2.2250902094      -11.4549154612        0.1792065211
 O        -2.4551604968      -12.6383743108        0.0809776814
 C        -2.5558841545      -10.4654244143       -0.8950253696
 C        -0.7512506706      -11.9850840229        2.2728348562
 C        -2.7947322605      -10.5470301690        2.4501811826
 C         0.8609645681       -7.3443369889       -3.1124030789
 C         1.6566321021       -6.1580083421       -1.1320633628
 C        -5.5754170770       -2.1518826843       -4.0279877240
 C        -4.4017623785       -3.4861091866       -5.8110107257
 C        -1.7988656447        3.1426877667       -2.3844472714
 C        -2.7038904153        5.1027554760       -3.8417260308
 C         3.3383273882        1.5611126142       -6.3341080544
 C         2.0562558882        0.0982604749       -7.8099487158
 C         3.3647902738       -4.9901350769       -4.3299859291
 C         5.1751433465       -4.3666881444       -6.2056561251
 C        -1.6622514295       -4.9796339133       -8.0077899623
 C        -0.6039242751       -5.7028782305      -10.3298562615
 C        -2.4680171537        1.9971238993       -9.7758382919
 C        -4.3295013805        0.4075374428      -10.3739534531
 C        -3.2685461372       -0.5073434320      -16.1648127301
 C        -3.5581931786        1.9592598050      -16.9702691167
 C       -10.2698178082       -2.5191811202      -16.9739256203
 C        -9.3745031364       -2.6230396970      -19.3566378827
 C       -12.7046571925        2.5772313613      -21.9438148370
 C       -12.9210508473        0.5082630560      -23.4136660448
 C        -6.8245632569        3.4523789937      -23.6709936939
 C        -5.5656297319        2.8504250287      -21.5857533325
 H        -9.2139450786        4.9089964975      -22.5092931065
 H        -7.7605904230        5.7605560654      -21.9922902508
 H        -8.9873713254        5.5740269806      -20.9375860143
 H        -7.7470420322       -0.0795463824      -23.9561455577
 H        -8.1073638484        1.5120241126      -24.5327981243
 H        -9.8237284995       -0.6514422814      -22.9833235297
 H       -10.3690320187        0.3854118294      -24.3290677592
 H       -13.4463676045        0.3604125877      -19.6287180102
 H       -12.0766369228        1.6214038085      -19.2705065596
 H       -12.0592707347       -1.4550629125      -19.0204422828
 H       -12.3705532662       -0.4050982098      -17.5831695384
 H        -8.2958985536       -1.3887574065      -15.5250203430
 H        -8.6642363547        0.2086283503      -16.1831210987
 H        -6.1515083590       -1.4980599039      -16.0010750350
 H        -6.3478496949       -0.1940349248      -14.9145512797
 H        -4.3573678027        3.1895586363      -14.4877965640
 H        -2.7484828831        2.5249739542      -14.5610980811
 H        -4.5296021311        2.6473403637      -12.1671821853
 H        -3.0181459897        3.3001484662      -12.3168694299
 H        -1.3693871974       -1.1750871259      -12.4929815761
 H        -2.7989655708       -1.7223856257      -11.6188535209
 H        -0.0208887428       -2.2719603575      -10.5728236708
 H        -0.5930911611       -3.1996579707      -11.9283135937
 H         2.0024131878       -4.3108273462      -10.0886173643
 H         1.6867730715       -5.5998953517       -9.1234060302
 H         3.0940013530       -2.9986245978       -8.3165737983
 H         3.8429967976       -4.4427462741       -8.5087511666
 H         2.7020506558       -2.5445285212       -3.3908923208
 H         1.4924947475       -2.6364429667       -4.6541911502
 H         3.4151713975       -0.3612780718       -4.6520506993
 H         2.2167978802       -0.2349429079       -3.3778818520
 H         1.0197297736        3.7912733703       -7.5485681300
 H         1.4570814115        3.7574652797       -5.8033307267
 H        -1.4441671829        3.7491782082       -6.4712687952
 H        -0.3088775018        5.1354655031       -5.9742517049
 H        -1.6865761120        0.8645508303       -4.1040996892
 H        -2.0207632291        1.0952977656       -5.6475844835
 H        -4.6390245661        0.4642375905       -5.1110604481
 H        -3.9581840532       -0.0334789436       -3.6307522313
 H        -1.1613829436       -3.1977497826       -3.6762210277
 H        -1.9037496378       -4.2663764391       -4.7634525903
 H        -2.3782296429       -5.8998105504       -2.7521306280
 H        -2.0250891843       -4.5891548057       -1.6788841783
 H        -0.3257360337       -6.2197116187        0.9413081531
 H         0.6601227489       -7.6735739084        0.6511303561
 H        -2.2605324759       -8.1270002250        1.1066924149
 H        -1.0924267873       -8.0185567572        2.4086357770
 H        -1.9120202318       -9.5934763368       -0.7654881266
 H        -3.5736864654      -10.1454445629       -0.8442836208
 H        -2.4372154340      -10.9721848217       -1.8517300734
 H        -1.0080921225      -13.0109768815        1.8448734580
 H        -1.0617394120      -11.9816322686        3.3302449068
 H         0.3299101404      -11.8494422975        2.2476506199
 H        -3.0819382675      -11.4775166945        2.9043413744
 H        -3.6145800968      -10.1988110096        1.8199269043
 H        -2.4892337949       -9.8588862700        3.2700391439
 H         1.6188676872       -8.0406570130       -2.6765214284
 H         1.0145358246       -6.5831475726       -3.8627365410
 H         0.0707289212       -7.8169068486       -3.6392100311
 H         2.3772669359       -5.6882050895       -1.7964728086
 H         2.1423447611       -7.0690557925       -0.6714174758
 H         1.5757904974       -5.5002222943       -0.2625854884
 H        -5.4734970576       -2.5082846094       -3.0215983651
 H        -6.3499376397       -2.7421750916       -4.4570241613
 H        -5.9341589782       -1.0920076032       -3.9328341112
 H        -4.3897402538       -4.5350832756       -5.4766465833
 H        -3.5124608532       -3.4746934618       -6.4482907739
 H        -5.2751169693       -3.1966938301       -6.3987900347
 H        -2.7874642160        3.3197011265       -1.9645592290
 H        -1.1182669777        3.7421657167       -1.7969650547
 H        -1.5032838093        2.0706096161       -2.2698893916
 H        -3.0695345937        5.2099147086       -4.8732177571
 H        -2.0065109331        5.8188532885       -3.4240844256
 H        -3.5185326030        4.9752891067       -3.2376379614
 H         3.4773913426        2.1604849666       -7.2023102638
 H         4.1786576276        0.9145034178       -6.2093763022
 H         3.4772961098        2.1604723969       -5.4249682735
 H         1.1440952315       -0.4395498504       -8.2159582887
 H         2.9102020358       -0.5709780766       -7.7316372778
 H         2.2900632448        0.8271791303       -8.6169122566
 H         3.8367336614       -5.9168751859       -4.4580926054
 H         2.3009470094       -4.9542078394       -4.2553870240
 H         3.8739777851       -4.6808381452       -3.4155124930
 H         5.1641594866       -5.4807072766       -6.5979508908
 H         5.8436228296       -4.1574487386       -5.3782286504
 H         5.3662171159       -3.7459280537       -7.0175510101
 H        -1.0637119445       -5.5734412874       -7.2697630416
 H        -2.4349932193       -5.6880020661       -8.2039379041
 H        -2.0117192848       -4.1034615231       -7.5558415609
 H        -0.0780001225       -6.6611954936      -10.0270176075
 H        -0.1461246951       -5.2851616411      -11.1857046366
 H        -1.5540023022       -6.2350462913      -10.6086402800
 H        -1.6588252502        2.5941932513      -10.2519996621
 H        -2.0430695668        1.5544748533       -8.8743223335
 H        -3.2965979942        2.6730627625       -9.7172438247
 H        -4.2611284414       -0.4935252445       -9.8723764506
 H        -4.8068540829        0.2342695350      -11.3218993686
 H        -4.8080651221        1.1398728935       -9.7747696617
 H        -2.2807432813       -0.2579833635      -15.8608487222
 H        -3.1081107782       -0.8133898799      -17.2202189091
 H        -3.6003614836       -1.3014217192      -15.4209266366
 H        -2.4949191410        1.8682899851      -16.9083200471
 H        -3.9253918615        2.9355995837      -16.4834845856
 H        -3.8843736892        2.0394041955      -18.0275193131
 H        -9.6695274768       -3.4381014455      -16.7291956620
 H       -11.1937095560       -2.9062168427      -17.3011742566
 H       -10.3553255841       -1.8931451112      -16.0515600074
 H        -8.9438165144       -3.5760451625      -19.0638112519
 H        -8.6876965156       -2.1779808995      -19.8962935556
 H       -10.1699173636       -2.7770837530      -20.0594008256
 H       -13.3020395872        2.5483366404      -21.0370389149
 H       -13.4778906979        2.7588907217      -22.6880321326
 H       -11.9539120024        3.4237524440      -21.8953919875
 H       -12.8846992458        1.1814609645      -24.2999228518
 H       -13.9682719122        0.5576627729      -23.2169452659
 H       -12.7722499789       -0.5315682526      -23.6668807257
 H        -6.5081837333        2.6520366144      -24.3414973164
 H        -6.0781386542        4.1879205725      -23.6511079370
 H        -7.6779209437        4.0704735401      -24.1161539036
 H        -5.5717756970        2.3595376732      -20.5869731422
 H        -5.2544960027        3.8662859489      -21.4392784364
 H        -4.7559292473        2.2671373914      -22.1133390986
 Na       -7.7378973055        1.2912005821      -19.1218361689
 Na       -0.9724906236       -0.8969758218       -7.3738975850
