232

 C        -8.9376711009        5.0679508231      -21.5913502787
 C        -8.1873318778        3.7913767281      -21.1228035087
 O        -8.2679744359        3.3249554447      -19.9698996215
 C        -7.2809845179        3.1062811565      -22.2671389798
 C        -7.8952881269        1.5943213200      -22.4120089626
 O        -8.0063319918        0.8811677575      -21.4241517435
 C        -8.4582486970        1.1155930245      -23.7577290553
 C        -9.7063274689        0.3761519859      -23.6108696873
 C       -10.7015474012        1.3228611171      -22.7406598092
 O       -10.2896473234        2.4342357866      -22.5143199031
 C       -12.1927397193        0.9244505437      -22.4237230694
 C       -12.0658987157        0.0647784085      -21.1343475476
 O       -11.5665182852       -0.9993189740      -21.3697153723
 C       -12.6226117280        0.5475072404      -19.7551261962
 C       -12.1723788804       -0.2179533848      -18.4786579948
 C       -10.6059535566       -0.2662427130      -18.3644559917
 O        -9.9985904392        0.7645335594      -18.7180480158
 C        -9.8240027212       -1.5747336215      -18.0889599598
 C        -8.3511834119       -1.0978988701      -17.6074805114
 O        -7.5017564023       -1.0730981823      -18.4431346713
 C        -7.9947318863       -0.8010534597      -16.1661557960
 C        -6.5080698044       -0.5396417219      -15.8979998238
 C        -5.8944815742        0.7286187723      -16.4945091385
 O        -6.4064866434        1.4342124815      -17.3531058113
 C        -4.4137272797        0.9784512452      -16.0288216998
 C        -4.3330316514        1.2381389030      -14.5026007786
 O        -4.4777509848        0.2607735507      -13.7712196235
 C        -3.8357847860        2.5491497579      -14.0496090154
 C        -3.4817355183        2.4718933232      -12.4912150345
 C        -2.5761199516        1.2815309317      -12.2180051865
 O        -1.6177562740        1.0487166930      -12.9211369198
 C        -2.5171000889        0.7070661628      -10.6764739327
 C        -1.5702044761       -0.4966639465      -10.6837196508
 O        -0.5556330561       -0.6213050920       -9.9533110648
 C        -2.0219344533       -1.6969818878      -11.6980769516
 C        -1.5096820460       -3.0443582590      -11.1663282106
 C        -1.8138455574       -3.6279822559       -9.7091994747
 O        -2.8669331833       -3.2447038266       -9.1583583578
 C        -0.7698337027       -4.6663904885       -9.0013251531
 C         0.4719788800       -3.9161157421       -8.6235348195
 O         0.3812909770       -2.9045522699       -7.9268397164
 C         1.8481231101       -4.3665794779       -8.9689598962
 C         2.9595092294       -3.8874160731       -7.9621934612
 C         2.7601693135       -4.4990813397       -6.5615952758
 O         1.9514184482       -5.3059807670       -6.2051677462
 C         3.8319058004       -3.9328981285       -5.5554452527
 C         3.7970740023       -2.3222987348       -5.3070201219
 O         4.3894227426       -1.5561192311       -6.0757320808
 C         3.1297429503       -1.7358692016       -4.0801736489
 C         2.9657380451       -0.2321790026       -4.2645257155
 C         1.8257065178        0.0442636882       -5.4354516499
 O         0.8282799235       -0.6699989757       -5.4275212585
 C         2.2097463226        1.0775801302       -6.6256099711
 C         0.9845295094        1.9582783826       -6.7558980288
 O        -0.1186456502        1.5363810843       -7.1008731778
 C         1.1545699313        3.4111379755       -6.2297227059
 C        -0.1042164530        4.1038999030       -5.5523615176
 C        -0.5184408538        3.3840573242       -4.2158870262
 O         0.2546397371        2.7384915288       -3.5297727440
 C        -1.9919968293        3.4766393167       -3.8283031392
 C        -2.7285710607        2.4084061476       -4.7256263516
 O        -3.4537846078        2.8190854804       -5.6040928232
 C        -2.2943123168        0.8976957651       -4.6821667686
 C        -3.5183009333       -0.0516892250       -4.4904878741
 C        -3.5845960951       -1.3816419040       -5.3202607721
 O        -2.9776486608       -1.3763559384       -6.3899053900
 C        -4.3800540788       -2.5501481501       -4.7952513895
 C        -3.4614906676       -3.1991536323       -3.5588026785
 O        -3.9997420355       -3.3312583557       -2.5013349901
 C        -1.9267563862       -3.5300299316       -3.7145767897
 C        -1.7671924977       -4.9203130685       -2.9917898318
 C        -0.2428360927       -5.1078605438       -2.6400489095
 O         0.5102722961       -4.2459514745       -2.9868920931
 C         0.4371767531       -6.3393869254       -1.8020114899
 C        -0.7566948564       -6.9889734604       -0.9896614011
 O        -1.7927509397       -7.3219720938       -1.5707485412
 C        -0.6595972922       -7.1610822953        0.5490220504
 C        -1.4773985677       -8.2215654200        1.2505434097
 C        -0.8112532733       -9.6052055235        0.9754626359
 O         0.2472765524       -9.6040942938        0.4538931953
 C        -1.4351591152      -11.0400593501        1.4384011618
 C        -2.0050437514      -11.8189696605        0.1260630754
 O        -1.4004138387      -12.7497141058       -0.3665266362
 C        -3.2694026471      -11.2263375439       -0.4991794645
 C        -0.0760509196      -11.7974134856        2.0614547817
 C        -2.7441640335      -10.7647999060        2.3718116823
 C         0.7365516719       -7.3712175379       -2.9445946353
 C         1.5933054204       -5.8845637357       -1.0027837623
 C        -5.7380230265       -2.2335780211       -4.1665304280
 C        -4.6636221857       -3.6003776170       -5.8508559288
 C        -2.1694660016        3.0822437915       -2.3789463623
 C        -2.6044287514        4.8975254682       -4.0698371618
 C         3.4619663965        1.8977059212       -6.2307119959
 C         2.3303862797        0.1495480275       -7.8867557640
 C         3.5230701000       -4.6741525359       -4.2517948269
 C         5.2200982308       -4.2335725972       -6.1224731332
 C        -1.4641838524       -5.0722524942       -7.6223295813
 C        -0.6921013824       -5.9335842739       -9.8876909648
 C        -1.8650253978        1.8101985342       -9.6744018571
 C        -3.9182995928        0.3003401488      -10.1079141716
 C        -3.7387710313       -0.4642300332      -16.1458099090
 C        -3.7001606861        2.0072479609      -16.9133914840
 C       -10.4850871877       -2.4434544644      -16.9619071501
 C        -9.6369452952       -2.3334967878      -19.4761756207
 C       -13.1141392623        2.1365467676      -22.1551194210
 C       -12.8224750572        0.0887619582      -23.5245784535
 C        -7.2189606088        3.8645038645      -23.6681847998
 C        -5.8941776320        2.9203030887      -21.6720281808
 H        -9.0956973841        5.2534235835      -22.6496326649
 H        -8.3697646413        5.8918171460      -21.2480584728
 H        -9.7974748568        5.2658245410      -20.9891446811
 H        -7.6365627660        0.4374347681      -24.2273394905
 H        -8.4460762258        1.8002633754      -24.5932269854
 H        -9.5063650131       -0.5564837145      -22.9973480425
 H       -10.2164284656       -0.0599392983      -24.4700618208
 H       -13.7251373233        0.4110162478      -19.8390782550
 H       -12.3273242628        1.5912874180      -19.6005201208
 H       -12.6023795644       -1.2394573435      -18.4304424461
 H       -12.4555523480        0.3564494627      -17.5850664673
 H        -8.3910303487       -1.5394239056      -15.4780460095
 H        -8.5539041953        0.0922313857      -15.8146881481
 H        -5.9055602422       -1.3777431739      -16.1709050568
 H        -6.3809518730       -0.5414530114      -14.7992671742
 H        -4.5486526809        3.2997014882      -14.3559675972
 H        -2.9160561194        2.8387760295      -14.5825307291
 H        -4.3947078707        2.4575103676      -11.9353715231
 H        -3.0299503747        3.4512094181      -12.2484667982
 H        -1.7546731313       -1.5183022751      -12.7088604690
 H        -3.1491966424       -1.7445114933      -11.6437591567
 H        -0.4499302199       -3.1426062929      -11.2291982883
 H        -1.9596535406       -3.8281042254      -11.8283213413
 H         2.0940858004       -4.0026575542      -10.0797131567
 H         1.9949861480       -5.4522701441       -8.9412819891
 H         2.9354572733       -2.8133997510       -7.9489911220
 H         3.9492719474       -4.1755719166       -8.3093199679
 H         3.5787065546       -1.8823055817       -3.0821364266
 H         2.0919799992       -2.1705876510       -3.9087360865
 H         3.9361091971        0.1509520925       -4.4771549543
 H         2.7285503637        0.4016001342       -3.3942806097
 H         1.2987927959        4.1036867378       -7.0321848742
 H         1.9451379167        3.3817272286       -5.4872389977
 H        -0.8596555497        3.8652944559       -6.3072616233
 H         0.0339636219        5.2306540289       -5.4396667679
 H        -1.4585214300        0.7446155176       -4.0014233802
 H        -1.8817308326        0.6908857530       -5.7053611659
 H        -4.3374729519        0.6031679191       -4.9158109674
 H        -3.7483040098       -0.1661010067       -3.4684224794
 H        -1.2862963933       -2.7927385617       -3.2151243491
 H        -1.6641912186       -3.5377047334       -4.7780431229
 H        -2.2187632274       -5.7035297101       -3.6333545940
 H        -2.4529782914       -4.8786790083       -2.1330943406
 H        -1.0915390581       -6.2291443253        0.9472262513
 H         0.3495291087       -7.3157630583        0.9005138025
 H        -2.4253312334       -8.2611663082        0.8269588612
 H        -1.5740555183       -7.9762615083        2.3214679113
 H        -3.0171350266      -10.3030673310       -0.9845023861
 H        -4.1141331727      -11.0288445733        0.2081326572
 H        -3.5916324269      -11.9123705012       -1.2712925118
 H        -0.1355992317      -11.9886190404        3.1282448723
 H         0.7812210221      -11.1300976691        1.8337420003
 H         0.0764976908      -12.7702924936        1.5425795877
 H        -3.1206611588      -11.7510637552        2.6433981728
 H        -3.5381897033      -10.1596655467        1.8499275264
 H        -2.5173135665      -10.1812719819        3.2531688124
 H         1.0599411349       -8.2580459620       -2.3648842340
 H         1.6055689813       -7.1050287564       -3.5010599170
 H        -0.2788899082       -7.4348379293       -3.4885454343
 H         2.4455194171       -5.5452812872       -1.6718512198
 H         1.9935664072       -6.6925262679       -0.4018733807
 H         1.2554106925       -5.0183787047       -0.3600414657
 H        -5.6153118214       -1.2976215604       -3.6453867995
 H        -5.8638460594       -3.0591798509       -3.4394196865
 H        -6.6119919977       -2.1507934822       -4.7773306617
 H        -5.4567614962       -4.2299528309       -5.5041681331
 H        -3.7131187641       -4.0510851665       -6.1021715996
 H        -4.9879404641       -3.1255939927       -6.7800298343
 H        -3.1723484180        2.7749447321       -2.1618717375
 H        -1.7823597717        3.8189524684       -1.6765971229
 H        -1.6304714723        2.1427598935       -2.3355617054
 H        -2.2272046125        5.3472074787       -4.8994826289
 H        -2.2664710664        5.4452030744       -3.2134969715
 H        -3.6756202461        4.6339495264       -4.1170321569
 H         3.6803998603        2.7652657865       -6.9043649677
 H         4.3397150570        1.3497634370       -6.4699218081
 H         3.5228710776        2.2374607328       -5.2314069184
 H         1.4331392975       -0.4488078834       -7.9413373925
 H         3.2950175234       -0.4351936954       -7.7793979841
 H         2.3123692833        0.6076631731       -8.8941790714
 H         3.0685280504       -5.5832826847       -4.6418010248
 H         2.7177864390       -4.2447955658       -3.7098736275
 H         4.3535038359       -4.8204398887       -3.5981423814
 H         5.2347911898       -4.9253140965       -6.8533659998
 H         5.8631423663       -4.4663497651       -5.2594385949
 H         5.5339973278       -3.1915183471       -6.5391881036
 H        -1.0014152463       -5.8951389920       -7.1714818314
 H        -2.5298768650       -5.3499184916       -7.7973540325
 H        -1.3853821073       -4.1949281934       -6.9513489593
 H         0.1544049817       -6.6377460938       -9.8139738660
 H        -0.6748293164       -5.6965674239      -11.0102718307
 H        -1.6258608670       -6.5339420330       -9.7719432870
 H        -0.7781895663        1.9555214299       -9.8491974590
 H        -2.0856914632        1.4133020471       -8.6802905948
 H        -2.4403901314        2.7343175772       -9.7844673587
 H        -3.7617084956       -0.2745990210       -9.2268354412
 H        -4.4829527177       -0.2963146547      -10.7868053662
 H        -4.4452421299        1.1869912707       -9.9473869927
 H        -2.6277791952       -0.4367179006      -15.8268096795
 H        -3.8132482684       -0.9867788125      -17.0970564380
 H        -4.1260792855       -1.0520846080      -15.3285642248
 H        -2.5993798027        2.1391047003      -16.7348420334
 H        -4.0886543662        3.0124047135      -16.9167953996
 H        -3.8352935878        1.6229392843      -17.9739711923
 H        -9.9110050805       -3.3499174119      -16.9311814768
 H       -11.6143194275       -2.5879535197      -17.0156860329
 H       -10.4603094598       -1.9035713285      -16.0598712238
 H        -9.0673353558       -3.1519293582      -19.3044478687
 H        -9.1897697279       -1.7920106180      -20.3742617245
 H       -10.5529229659       -2.6891102203      -19.7995950676
 H       -12.3953907736        2.9228635508      -21.9040078980
 H       -13.7442581771        1.8614743326      -21.2685398681
 H       -13.8366266529        2.4049161222      -22.8952732715
 H       -12.5028271960        0.4848476437      -24.4800846783
 H       -13.8933344684        0.2411194659      -23.5709426270
 H       -12.5723868447       -0.9825932564      -23.5020400966
 H        -6.7367889383        3.2310015295      -24.4415139071
 H        -6.5031148875        4.7224059621      -23.6483956266
 H        -8.2170910903        4.1208236138      -23.9482035597
 H        -5.9239876830        2.2815547820      -20.7719848770
 H        -5.4599733832        3.8357454687      -21.2453514369
 H        -5.2435896195        2.5290110049      -22.4451930519
 Na       -7.7426330090        1.1583443599      -19.3683223860
 Na       -0.8621170251       -0.8422771652       -7.3959075704
