232

 C        -8.8013073504        5.1446768361      -21.3855795025
 C        -8.2630190266        3.8247030841      -21.2355474288
 O        -8.2660658026        3.3108731720      -20.0707962765
 C        -7.3310493073        3.0169120456      -22.2579708234
 C        -7.9445893376        1.6500230192      -22.4690393510
 O        -8.0328952586        0.8638860902      -21.5656230820
 C        -8.4904680166        1.1025585409      -23.7671524685
 C        -9.8812526867        0.4702901734      -23.5562264395
 C       -10.8526820062        1.3837021497      -22.8654854603
 O       -10.5172682046        2.4846788404      -22.4331974145
 C       -12.3219312120        0.8946529541      -22.5288005972
 C       -12.1578869523       -0.0722944373      -21.1951887016
 O       -11.5247499608       -1.1112650474      -21.3024322655
 C       -12.6328423104        0.5180284992      -19.8652831873
 C       -12.2251957600       -0.1808217374      -18.5817008425
 C       -10.6734969617       -0.2454241737      -18.5237322688
 O       -10.1022682290        0.7847511344      -18.6746525063
 C        -9.8013105286       -1.5836797594      -18.0788538895
 C        -8.3090838268       -1.1276006236      -17.6417747300
 O        -7.4293166121       -1.0134293632      -18.4449680889
 C        -8.0270726976       -0.7741367143      -16.1022437849
 C        -6.5404414773       -0.4786930349      -15.8610488642
 C        -5.9057245015        0.7746445774      -16.4567752676
 O        -6.4244620575        1.5548551372      -17.2461172429
 C        -4.3977166378        0.9288981070      -16.0320753840
 C        -4.2645945848        1.1932651159      -14.4254962671
 O        -4.6270859951        0.3591522290      -13.6356932937
 C        -3.7901738331        2.5451017117      -13.9591037322
 C        -3.4518296153        2.3385201529      -12.4207287050
 C        -2.4356175818        1.3099719868      -12.0727631783
 O        -1.5867101242        0.9061972239      -12.8796795591
 C        -2.4809074374        0.6742521286      -10.7017863688
 C        -1.6197862624       -0.5643428322      -10.6612088485
 O        -0.5544283281       -0.6639480314      -10.0396182357
 C        -2.0470690210       -1.7426112617      -11.5863984434
 C        -1.5523882442       -3.0989109684      -11.2029345116
 C        -1.8330272035       -3.5510035546       -9.6817872916
 O        -2.8202963429       -3.2016184540       -9.0716602555
 C        -0.9006236429       -4.5215513806       -9.0002901749
 C         0.5486733018       -3.7798211533       -8.4687661530
 O         0.4392097390       -2.7874686013       -7.8037820237
 C         1.8641854342       -4.4085953075       -8.8967614345
 C         2.9964159865       -3.8639899700       -7.9050105501
 C         2.8792463447       -4.4445754888       -6.5381918014
 O         2.0446689700       -5.2905123001       -6.2899670761
 C         3.9225805535       -3.9244829146       -5.4462136978
 C         3.7325458596       -2.3574306936       -5.3281514593
 O         4.2121485179       -1.6612926892       -6.1958387805
 C         3.0372747221       -1.7114907252       -4.1387976417
 C         2.9488732599       -0.1847694387       -4.2770555627
 C         2.0492949064        0.0415039395       -5.4529226172
 O         1.0539530870       -0.6073429138       -5.5553417633
 C         2.3431342579        0.9935996865       -6.6009714810
 C         1.0753059351        2.0041130935       -6.6042059035
 O        -0.0236747472        1.6639025782       -6.9786983683
 C         1.2017337484        3.4873754022       -6.2278864267
 C        -0.0787320589        4.0313900418       -5.5184900242
 C        -0.4998441113        3.2724286249       -4.2288699311
 O         0.2602101196        2.6121059831       -3.5707803865
 C        -2.0620852676        3.3852711260       -3.7519615903
 C        -2.6766044494        2.3353032584       -4.8548020748
 O        -3.4179944313        2.7471773078       -5.7153589014
 C        -2.3774898240        0.8753877515       -4.7039532799
 C        -3.5721880069       -0.0238682373       -4.4584412210
 C        -3.4891575233       -1.3145171680       -5.3236785784
 O        -2.7480531253       -1.4548315549       -6.3196031412
 C        -4.3935334087       -2.5013319868       -4.7256897725
 C        -3.5175185632       -3.2064049307       -3.5489363552
 O        -4.0931835409       -3.5294183453       -2.5289489057
 C        -2.0766891438       -3.6552173688       -3.7624111452
 C        -1.6392861786       -4.8898732086       -2.9655230898
 C        -0.2106818103       -5.0133840469       -2.6139526346
 O         0.6917628078       -4.2132601283       -2.8932258993
 C         0.2350202922       -6.2971665732       -1.7487183763
 C        -0.9163988457       -6.9451268442       -0.9573958370
 O        -1.8792056859       -7.1724885493       -1.6341700656
 C        -0.7816535839       -7.1322632105        0.5819633669
 C        -1.5763694371       -8.2811043418        1.1652791490
 C        -0.8731131439       -9.6613132304        0.8725000692
 O         0.1988813458       -9.5702887407        0.2386440827
 C        -1.3778320088      -10.9496455023        1.3690179399
 C        -1.8974673937      -11.7207150374        0.0731241436
 O        -1.2198923558      -12.6223225638       -0.3556185536
 C        -3.3191079848      -11.4898605432       -0.4423559004
 C        -0.2530572009      -11.6895464469        1.9656537731
 C        -2.4339446636      -10.7990230282        2.4172863267
 C         0.6825233523       -7.2766268026       -3.0174510898
 C         1.5082291228       -5.8464879971       -0.9804788787
 C        -5.8539137889       -2.2387701495       -4.1586896398
 C        -4.6279135247       -3.6345617539       -5.9363752710
 C        -2.2201660583        3.0356542404       -2.2533722687
 C        -2.6835091075        4.8498907823       -4.0529740298
 C         3.5887794592        1.8200310195       -6.3418622190
 C         2.4778492527        0.1939924306       -7.8924697468
 C         3.7671142484       -4.6714915868       -4.0771684077
 C         5.3885695165       -4.2496225203       -6.0710288779
 C        -1.4522608123       -5.0750900582       -7.6032907582
 C        -0.7095627130       -5.7680315500       -9.8333139331
 C        -1.7947365878        1.7305829461       -9.7973393257
 C        -3.8725846100        0.3411490673      -10.1393134132
 C        -3.6158537287       -0.4177144778      -16.3703725159
 C        -3.6700188930        1.9557007217      -16.8773069325
 C       -10.6096782760       -2.3955807156      -17.0795774411
 C        -9.7055727795       -2.4327146206      -19.3501822301
 C       -13.1964662963        2.1782492321      -22.3168767609
 C       -12.8535674631       -0.0501977870      -23.6589306106
 C        -7.3719538705        3.8020725602      -23.5426116979
 C        -5.8937981825        2.9713171954      -21.6731473940
 H        -8.9911677581        5.4357865158      -22.4429211609
 H        -8.2242496933        5.9831705454      -20.9472409695
 H        -9.6548906720        5.1923207489      -20.7937759047
 H        -7.7741100563        0.6167767756      -24.4064366850
 H        -8.6503121214        1.9462981505      -24.4645722612
 H        -9.8929965489       -0.4347968209      -22.9134434192
 H       -10.4408454758        0.0661758786      -24.3897585675
 H       -13.7743534192        0.5543259995      -19.8483923812
 H       -12.2132938696        1.5540031224      -19.8687020674
 H       -12.7074680783       -1.1271729809      -18.5282149417
 H       -12.4798024536        0.4291889384      -17.7135364594
 H        -8.2517954104       -1.7309881989      -15.4336005555
 H        -8.8095703052       -0.1350649211      -15.7301990265
 H        -6.0210070765       -1.2998506206      -16.4033185377
 H        -6.1600891088       -0.7406618924      -14.8360182765
 H        -4.5432554778        3.2696025394      -14.1019949547
 H        -2.9034140876        2.9469623685      -14.4900143607
 H        -4.4377486032        2.2907573126      -11.9097146514
 H        -3.0647311243        3.3236657072      -12.1407678603
 H        -1.6597293364       -1.4152442557      -12.5785474627
 H        -3.1758244962       -1.7291161159      -11.6847800780
 H        -0.5353839375       -3.1593433035      -11.3051037472
 H        -2.0327062871       -3.8372968059      -11.8389090469
 H         2.1197418545       -3.9874881138      -10.0329217122
 H         1.9399681857       -5.4954496458       -8.9109741461
 H         2.7275888222       -2.7781854150       -7.8688286950
 H         3.9907075587       -3.9620180484       -8.2476671872
 H         3.4772317815       -1.9197186186       -3.1369300086
 H         2.0032490435       -2.1125266724       -4.0012682545
 H         3.9143241020        0.2819882189       -4.2460248898
 H         2.4362667842        0.3408973538       -3.4727034285
 H         1.3316541089        4.1092356690       -7.0784586372
 H         2.0116287524        3.5953778481       -5.4031169944
 H        -0.9179015364        3.8785682188       -6.2536739802
 H         0.0418083893        5.0796891031       -5.2734750918
 H        -1.6693329019        0.7536020584       -3.8322011716
 H        -1.7793600526        0.4970720612       -5.6146776270
 H        -4.5115317839        0.5469416227       -4.4961268982
 H        -3.4444060142       -0.4184224962       -3.4207857251
 H        -1.4323878539       -2.7980096669       -3.4068988053
 H        -1.9561922189       -3.7313964663       -4.8350324683
 H        -1.9152934318       -5.7856859499       -3.5786533157
 H        -2.3775391592       -4.9322106356       -2.1194577331
 H        -0.8521853579       -6.1715246398        1.0727549393
 H         0.2111643751       -7.5558260166        0.7146557544
 H        -2.5446042071       -8.3169235511        0.7739020493
 H        -1.6188991456       -8.2389560976        2.2194545947
 H        -3.3104329606      -10.5556161693       -1.0217103929
 H        -4.0644410697      -11.4070969227        0.3075566487
 H        -3.5256137570      -12.2663981489       -1.1488909367
 H        -0.3208354834      -11.5612232717        3.0426587943
 H         0.7169594447      -11.2931317353        1.6031638725
 H        -0.3308748662      -12.7864436917        1.7496278326
 H        -2.7465914904      -11.8458729499        2.5739584764
 H        -3.2464558766      -10.1816534476        2.0602484771
 H        -2.1348612427      -10.3424069094        3.3374490418
 H         1.3725865985       -7.9386917056       -2.5586760394
 H         1.4701398580       -6.6623167892       -3.5677192379
 H        -0.2223199166       -7.6923464831       -3.5457981903
 H         2.1376380020       -5.4003088945       -1.6984891934
 H         2.0754094184       -6.6763559931       -0.5774388047
 H         1.2745917110       -5.1069712634       -0.2106996787
 H        -5.8733180094       -1.1717080487       -3.8660776923
 H        -6.1090110331       -2.9229196856       -3.3278100307
 H        -6.5483233942       -2.3283050088       -4.9246950622
 H        -5.5153249711       -4.2469145088       -5.6126460025
 H        -3.6133387482       -4.1435490294       -6.0621844074
 H        -4.8348696965       -3.2306666789       -6.9179795077
 H        -3.2685593914        2.9798468488       -1.8994737888
 H        -1.6149921911        3.7816172906       -1.7048606842
 H        -1.8372396884        2.0517089681       -2.1049365384
 H        -2.2226805758        5.1881415682       -5.0074766837
 H        -2.3721756019        5.5197989830       -3.3305335298
 H        -3.7309414839        4.5919115226       -4.1400139807
 H         3.8470083139        2.5862708582       -6.9841584881
 H         4.4375360626        1.1418873856       -6.5484049266
 H         3.6591034685        2.2606441757       -5.3845956693
 H         1.7789349863       -0.6972080872       -7.8137298931
 H         3.5015922708       -0.0791621442       -7.9971483279
 H         2.1173744318        0.6231358541       -8.8089743365
 H         3.9370573920       -5.6640597771       -4.3810324632
 H         2.7422773256       -4.7367463810       -3.6532567875
 H         4.4101506970       -4.2655433605       -3.3652068416
 H         5.3052312383       -5.1144860001       -6.7651272565
 H         5.9688416322       -4.6082808064       -5.2347657890
 H         5.8638353065       -3.3797734772       -6.5191637876
 H        -0.5529326789       -5.5415805044       -7.1628959905
 H        -2.2402551064       -5.7826132858       -7.6781232959
 H        -1.7411029409       -4.2694297849       -6.9481112160
 H         0.1605690383       -6.3730232583       -9.6289598482
 H        -0.5228949976       -5.4953523142      -10.9520915920
 H        -1.5879244104       -6.3812284358       -9.8955895965
 H        -0.9097011680        2.0367386311      -10.2399809916
 H        -1.6529349233        1.2460272224       -8.8152966514
 H        -2.5500499765        2.5653321555       -9.6337022554
 H        -3.7719652978       -0.5592446742       -9.5397822111
 H        -4.6101314644        0.1743639031      -10.8473430382
 H        -4.2277125891        1.2034450709       -9.5494627608
 H        -2.5840966223       -0.1576691900      -16.1216907555
 H        -3.6630407962       -0.8365906950      -17.4266820696
 H        -3.8062346794       -1.2544646600      -15.6652172726
 H        -2.5649200797        1.8280426142      -17.0389341298
 H        -3.7322517168        2.9816016841      -16.5547005073
 H        -4.1229464809        1.9337773076      -17.8187023334
 H       -10.3285394917       -3.3747022536      -17.3063503325
 H       -11.6405309594       -2.1918980525      -17.1001071102
 H       -10.3895417093       -2.1716701687      -15.9691114342
 H        -9.2024220425       -3.4243104056      -19.2042453680
 H        -9.2359406116       -1.9698646616      -20.1853083956
 H       -10.7762703042       -2.7099828666      -19.6835273714
 H       -12.5248305154        3.0804477336      -22.4848181369
 H       -13.6804167054        2.1801793190      -21.3663645373
 H       -14.0787411541        2.1343519905      -22.9983700791
 H       -12.6966287142        0.3507095440      -24.6620026587
 H       -13.9873114090       -0.2899202144      -23.5871836988
 H       -12.2938694438       -0.9555507091      -23.6296839501
 H        -6.6364914795        3.5221429316      -24.2796698277
 H        -6.9966239160        4.8164700871      -23.2488070780
 H        -8.3425026421        3.7639793034      -23.9603394468
 H        -5.8814515700        2.4060326647      -20.7515206804
 H        -5.5382320440        3.9859168105      -21.2827716847
 H        -5.1988435198        2.6169608850      -22.4135005114
 Na       -7.8041535482        1.1762214823      -19.2886737351
 Na       -0.8803874992       -0.8469818635       -7.4232022694
