232

 C        -8.7090486736        5.2239067308      -21.2654232753
 C        -8.2453468234        3.8261900041      -21.0911603295
 O        -8.3415297293        3.2587018770      -20.0366180960
 C        -7.4220558617        3.0682370799      -22.2854040367
 C        -8.0502167711        1.5721595566      -22.4576931731
 O        -7.9795077116        0.7386526483      -21.5906853817
 C        -8.6596959906        1.1602413166      -23.8404427335
 C       -10.0279031691        0.5247967773      -23.5528694686
 C       -10.9948312241        1.4146965830      -22.8628212036
 O       -10.6538874771        2.4955702208      -22.4151189822
 C       -12.4156512937        0.8332174614      -22.5906339720
 C       -12.1328627115       -0.0276304207      -21.3039073047
 O       -11.5988602042       -1.1288817001      -21.2300613173
 C       -12.6403739053        0.5596242937      -19.9627562427
 C       -12.1445787637       -0.3250937079      -18.7589518413
 C       -10.6494573299       -0.1745828809      -18.5054489282
 O       -10.0551186045        0.8574832305      -18.7014642289
 C        -9.8804999474       -1.5640314565      -18.1042493989
 C        -8.4612306645       -1.1339186969      -17.6553572163
 O        -7.4709445098       -0.9971771064      -18.4369482658
 C        -8.1117946400       -0.7979857430      -16.1773833772
 C        -6.6171724925       -0.5607532828      -15.9321084911
 C        -5.8805270413        0.6872330854      -16.4597537447
 O        -6.3900668710        1.6035455650      -17.0743883202
 C        -4.2683383352        0.8888913003      -16.0409847150
 C        -4.2579492114        1.1477981692      -14.4346610843
 O        -4.8138336855        0.3591615233      -13.6928666619
 C        -3.6695714072        2.5189374861      -13.8318978704
 C        -3.4054500170        2.4035700923      -12.3307720260
 C        -2.3611430952        1.2757612373      -12.0872652433
 O        -1.6134365045        0.8477299039      -12.9380141704
 C        -2.4184326716        0.6646884820      -10.5708606211
 C        -1.5666442644       -0.6820648620      -10.6514686693
 O        -0.6021217957       -0.7873016813       -9.9598613540
 C        -2.1009550433       -1.9011529457      -11.4695773588
 C        -1.5542011832       -3.2486220440      -11.0634796668
 C        -1.8770183531       -3.4173816066       -9.5585508823
 O        -2.8613023967       -2.9692318081       -9.0903975089
 C        -0.7865458183       -4.4688967519       -8.8963572533
 C         0.5161877372       -3.7078042355       -8.4955840456
 O         0.4606696010       -2.7138207915       -7.7855462582
 C         1.8144211832       -4.3251040462       -8.7893484925
 C         2.9984948351       -3.7485430731       -7.9541101344
 C         2.9723725136       -4.3930733272       -6.5238933942
 O         2.1560764923       -5.2766579541       -6.2564893060
 C         4.0662028051       -3.9959024550       -5.3576022906
 C         3.8152033425       -2.4049670683       -5.3042463615
 O         3.9953248402       -1.7505832038       -6.3149434833
 C         3.0518458541       -1.8574466080       -4.1009056312
 C         2.8969800401       -0.3138254597       -4.2583000491
 C         2.0397771329       -0.0074082345       -5.4523035090
 O         1.0353621350       -0.6514656015       -5.7213903687
 C         2.4446640175        1.1015061084       -6.6121155736
 C         1.1276755544        2.0886836218       -6.5586109191
 O         0.0836845453        1.5373338388       -6.9031146601
 C         1.2321478330        3.5201315510       -6.0610713095
 C        -0.0826919077        3.9554819608       -5.4775658878
 C        -0.4965517757        3.2725189286       -4.2323362748
 O         0.2495436282        2.4989861352       -3.6595935364
 C        -2.0331306343        3.3165710546       -3.8299051568
 C        -2.7706883074        2.3543978329       -4.7920126624
 O        -3.3709115497        2.7069728108       -5.7988154071
 C        -2.3249923269        0.8396841212       -4.6003911566
 C        -3.5644170807       -0.1007502595       -4.4222979563
 C        -3.5341176915       -1.4183188266       -5.1584898213
 O        -2.7460170725       -1.6076047899       -6.0771407713
 C        -4.3732721247       -2.5505260495       -4.7324349216
 C        -3.6273135072       -3.3983509599       -3.6085999125
 O        -4.1917505245       -3.6346397613       -2.5709063324
 C        -2.1238563258       -3.6784468458       -3.8943747457
 C        -1.5940001603       -4.7909638092       -2.9823521175
 C        -0.1689828684       -4.8662683540       -2.5637036481
 O         0.6853020280       -4.0439037976       -2.8771517649
 C         0.2337189094       -6.1717992094       -1.8488929461
 C        -0.9906018917       -6.8725712097       -1.0569152938
 O        -2.0966792899       -7.2060539783       -1.4638266983
 C        -0.8481796025       -6.9796512745        0.4914135726
 C        -1.6272840024       -8.2453077619        0.9592623097
 C        -0.8204479330       -9.5931260371        0.6816589431
 O         0.1765935678       -9.5132807091       -0.0260752626
 C        -1.3926073862      -10.9415371419        1.3702653139
 C        -1.8440561339      -11.8078675061        0.1073742784
 O        -1.0407304396      -12.5086530590       -0.4392897833
 C        -3.3299145400      -11.7029083207       -0.4096796949
 C        -0.1952126229      -11.7966725828        1.9448558884
 C        -2.4151583981      -10.7998518083        2.5271441183
 C         0.6340473159       -7.2102152751       -2.9217288128
 C         1.4740021697       -5.9247089119       -0.8724633391
 C        -5.7216646211       -2.0906321189       -4.2984943601
 C        -4.4795576194       -3.6189354189       -5.9378334001
 C        -2.2404089023        2.9580656885       -2.3753818389
 C        -2.6886533393        4.7068127378       -4.0377789226
 C         3.8772421676        1.8471633331       -6.4964042405
 C         2.5099114559        0.3665601518       -7.9712380382
 C         3.9684342303       -4.6525605601       -3.9807332690
 C         5.4518480041       -4.2140795724       -5.9524722501
 C        -1.4189943328       -4.9911079266       -7.5908838901
 C        -0.5346970817       -5.6371784150       -9.8763656142
 C        -1.6847580050        1.8091500651       -9.7426800798
 C        -3.9010220952        0.3509315699      -10.1380548398
 C        -3.5368524370       -0.4101852327      -16.4662410291
 C        -3.7183108220        2.0795788161      -16.8539087692
 C       -10.6652776118       -2.3242739638      -17.0170606151
 C        -9.7161110752       -2.4739944574      -19.3187362911
 C       -13.3622718213        2.0764892593      -22.5311730786
 C       -12.8920725334       -0.1185697506      -23.7434167324
 C        -7.4018133521        3.9524457733      -23.6380465032
 C        -5.9478423829        2.9781089944      -21.7343399837
 H        -8.9357809428        5.4113138814      -22.2981872288
 H        -8.0947701345        6.1175918852      -20.9713881799
 H        -9.6080972459        5.3429065013      -20.5874191147
 H        -8.0547547410        0.5235301382      -24.3846846904
 H        -8.6359515385        2.0093998592      -24.5514530447
 H        -9.8831585700       -0.3504315584      -22.9626448860
 H       -10.6293923537        0.1282529722      -24.3691681187
 H       -13.7573497014        0.5739252971      -19.8883035318
 H       -12.2576579800        1.6185330497      -19.8531544607
 H       -12.3500979208       -1.3743953518      -18.9889845414
 H       -12.6832148569       -0.0569531098      -17.8501989247
 H        -8.4439932034       -1.5257291316      -15.3990503713
 H        -8.7855237064        0.0492078631      -15.9086235632
 H        -6.0527610483       -1.5529682021      -15.9659712248
 H        -6.5016869224       -0.4233946455      -14.8408466324
 H        -4.3184631530        3.3853925795      -14.0602865500
 H        -2.7303005259        2.7130639867      -14.3282185848
 H        -4.4314431876        2.2540358996      -11.9348030567
 H        -3.0965872817        3.3795181856      -11.9248188172
 H        -1.7596255793       -1.6557021652      -12.5425462473
 H        -3.1635750563       -1.8089309465      -11.4972107549
 H        -0.4371118277       -3.2245502807      -11.1556412279
 H        -1.9832652184       -4.0645735020      -11.5737911444
 H         2.0751955091       -4.2967377283       -9.7574218860
 H         1.8559652318       -5.4076461591       -8.4441474490
 H         2.9956369062       -2.6479465005       -8.0447911255
 H         3.9091404933       -4.1772664525       -8.4241694451
 H         3.5548139787       -2.0580391659       -3.1301405502
 H         2.1072016988       -2.3478693500       -3.9619298428
 H         3.8942475060        0.1906681213       -4.3815041664
 H         2.4758495785        0.2323137085       -3.4275105561
 H         1.4807824067        4.1673692654       -6.9912696137
 H         1.9438280055        3.6789072704       -5.2637144586
 H        -0.9290439688        3.8920041680       -6.1767080459
 H         0.0394839124        4.9641028073       -5.1623978142
 H        -1.5163621375        0.6729153177       -3.8244328573
 H        -1.8652269492        0.6496383944       -5.5952467421
 H        -4.3027483736        0.5369962126       -4.8890078606
 H        -3.8462871313       -0.2283406313       -3.3244148320
 H        -1.6705761099       -2.7112329103       -3.6008412864
 H        -1.9829889637       -3.8038293684       -4.9824900030
 H        -1.8491630177       -5.7366023064       -3.4776780413
 H        -2.3527546767       -4.7365763640       -2.1744819841
 H        -1.2822811429       -6.0179620520        0.7824384964
 H         0.1348934638       -7.1009751634        0.9391911505
 H        -2.6180311422       -8.2800574661        0.4166326741
 H        -1.8022595277       -8.3217862755        1.9978795181
 H        -3.4696078854      -10.7218324470       -0.8781371425
 H        -3.9898628841      -11.7463366045        0.4096313793
 H        -3.5685379085      -12.4440122690       -1.1648644793
 H         0.1400130880      -11.3391221494        2.9098523354
 H         0.6361561168      -11.9152802818        1.2651545122
 H        -0.6292073821      -12.7566157673        2.1830013108
 H        -2.7155903095      -11.7902543495        2.8231837538
 H        -3.2248033833      -10.1600246763        2.2987330890
 H        -1.9616627590      -10.2862822532        3.3934412831
 H         1.4475468821       -7.8145163984       -2.4986290238
 H         1.2119663662       -6.6546407300       -3.7012985051
 H        -0.2436130132       -7.7310394560       -3.1787160973
 H         2.2078428352       -5.3559618095       -1.3552367339
 H         1.9135732702       -6.8825024246       -0.6140648961
 H         1.1564154244       -5.4292297652       -0.0196406912
 H        -5.6225595292       -1.0366780668       -4.0498403133
 H        -6.1208733259       -2.6554980627       -3.4856709673
 H        -6.4042841213       -2.1294443503       -5.1995251816
 H        -5.3132573241       -4.2959464710       -5.6131433145
 H        -3.4707633169       -4.0260860849       -6.1124482541
 H        -4.7845093664       -3.1804992924       -6.9240932883
 H        -3.2928492002        3.1686848717       -2.1367114570
 H        -1.6033769131        3.6612159519       -1.8538514094
 H        -2.0537697444        1.9137817414       -2.0705548233
 H        -2.4202292756        5.0445404245       -5.0799282785
 H        -2.1927702691        5.4274165126       -3.3611786479
 H        -3.6869783710        4.4685172569       -3.8738147591
 H         4.2615069454        2.4032890451       -7.3032848375
 H         4.6276731988        1.0755317413       -6.4407970421
 H         3.9884520873        2.5736766816       -5.6731389628
 H         1.9429921525       -0.5640614394       -7.9844211530
 H         3.5309467461        0.1967860407       -8.1838849338
 H         2.0762990398        0.9083379474       -8.8034961148
 H         4.5918681351       -5.5211436472       -3.9057242017
 H         2.9851890325       -5.0508689078       -3.7529870620
 H         4.1602262331       -3.8153316117       -3.2996569687
 H         5.3656307869       -5.3031090956       -6.3762992107
 H         6.1449712744       -4.3452663253       -5.1327557172
 H         5.7648117988       -3.4980875577       -6.6163153553
 H        -0.6821931397       -5.3560562554       -6.7925310258
 H        -2.1501056307       -5.7258096613       -7.8681517276
 H        -1.9962084796       -4.1931237279       -7.2034985182
 H         0.0593714719       -6.4671754769       -9.4743283978
 H         0.0178851070       -5.3778506974      -10.6972502252
 H        -1.4683225438       -5.9769080370      -10.3266808990
 H        -0.8971801358        2.1057839791      -10.4333971156
 H        -1.2758659242        1.4448282914       -8.8127018962
 H        -2.3857306982        2.5978603493       -9.5087331403
 H        -3.9834921292       -0.6734562962       -9.7400200233
 H        -4.5495983784        0.3760297703      -11.0632351998
 H        -4.3664979881        1.1070521508       -9.4662810228
 H        -2.4961716473       -0.3027915610      -16.3554094558
 H        -3.7843581986       -0.5888730142      -17.5460642643
 H        -3.8125074548       -1.3735812122      -15.9431266915
 H        -2.7084900357        2.1094055188      -17.0647347307
 H        -3.8632339264        3.0000699740      -16.2612404738
 H        -4.2146226065        2.2619901370      -17.7725833323
 H       -10.4176273665       -3.3868390608      -17.1935480199
 H       -11.6827228196       -2.0740976207      -17.0787569777
 H       -10.4154641197       -2.0801454758      -15.9720635156
 H        -9.1188634172       -3.4538921097      -19.0486054305
 H        -9.0954163530       -1.9907178337      -20.0488105847
 H       -10.6548709639       -2.8390171390      -19.8200706633
 H       -12.8309013655        2.9239566547      -22.9649590966
 H       -13.8236669857        2.2977397035      -21.5856290857
 H       -14.2290677493        1.7334419248      -23.1464792257
 H       -13.0525507020        0.3828764883      -24.7368279847
 H       -13.8145867566       -0.6186853531      -23.4517141245
 H       -12.1409044911       -0.8981205677      -23.9468207686
 H        -6.6222932799        3.5978085245      -24.2861486788
 H        -7.0474002772        4.8958446186      -23.3755052338
 H        -8.3353968961        3.8803981547      -24.2636629855
 H        -5.9882271550        2.4681688636      -20.7733196298
 H        -5.5716802668        3.9526749130      -21.4491963586
 H        -5.2309620840        2.5312646785      -22.4619388606
 Na       -7.8607681962        1.2237382521      -19.1335999927
 Na       -0.7342474677       -0.7819072688       -7.4370030126
