232

 C        -8.7131234538        5.2651639247      -21.2361976248
 C        -8.2559229998        3.7421154398      -21.0511439914
 O        -8.4027865560        3.2423399909      -19.9756920259
 C        -7.4793518598        3.0935456184      -22.2303758837
 C        -8.0413139259        1.6480424084      -22.4997165749
 O        -7.8854121400        0.8382327700      -21.5777042107
 C        -8.7409199293        1.2661256722      -23.7829854189
 C        -9.9934661091        0.4427511325      -23.6721895044
 C       -11.0825924989        1.4213561345      -22.8823412515
 O       -10.7703380225        2.4891360106      -22.4162930444
 C       -12.5270380841        0.7845762956      -22.6657960385
 C       -12.2898736700        0.0673139978      -21.3357147552
 O       -11.7114502886       -0.9760141661      -21.4603648953
 C       -12.6533039105        0.6307605633      -19.9070170815
 C       -12.1133871026       -0.4370398005      -18.9233229871
 C       -10.5890143992       -0.2874158607      -18.6027054979
 O       -10.0875280620        0.8535883272      -18.6832511700
 C        -9.8418695246       -1.5117464344      -18.0810657941
 C        -8.4513632760       -1.0697100350      -17.6191181369
 O        -7.6499102654       -1.0428266301      -18.5604647246
 C        -8.0857819329       -0.6675967343      -16.1801658006
 C        -6.6031376003       -0.5688847920      -15.8422096011
 C        -5.8574892782        0.6905275715      -16.3293387663
 O        -6.4347585244        1.5158790362      -17.0209217253
 C        -4.3528853095        0.9432554519      -16.0517410717
 C        -4.3035349098        1.1325075837      -14.5479883971
 O        -4.9021055400        0.3820165781      -13.7759370345
 C        -3.5909385438        2.3164577320      -13.9170202931
 C        -3.3385631627        2.3655509354      -12.3922831334
 C        -2.4845687264        1.1649384582      -12.0731595601
 O        -1.6877655017        0.8296218448      -12.9153498514
 C        -2.3157242699        0.6305331803      -10.6217826527
 C        -1.5797376266       -0.7565877775      -10.5360764918
 O        -0.6323427151       -0.9739661109       -9.7965693536
 C        -2.1492986093       -1.7996398067      -11.4547895244
 C        -1.5180963322       -3.1233327826      -11.0542677106
 C        -1.8255875701       -3.4692054414       -9.5771638324
 O        -2.6915010397       -2.8552468858       -8.9409348941
 C        -0.8798550378       -4.4031337194       -8.8445456337
 C         0.4737298002       -3.6498267618       -8.3874906727
 O         0.4489092927       -2.5651703624       -7.8055362891
 C         1.8780573021       -4.3855410385       -8.6973938490
 C         3.0890030109       -3.8626488541       -7.8469447342
 C         3.0964270163       -4.4781548857       -6.4508492404
 O         2.2517895288       -5.2615573266       -6.1359273013
 C         4.1734392020       -3.9818266399       -5.3600169648
 C         3.7651627509       -2.4397357898       -5.2925794938
 O         3.8718340637       -1.7203204699       -6.2984726173
 C         3.1391588021       -1.8931257736       -4.0899922033
 C         2.8938573145       -0.3773381339       -4.3140562420
 C         2.1256163193       -0.0935512420       -5.6373136805
 O         1.0377815373       -0.6742277185       -5.7941273421
 C         2.5025932222        1.1043959366       -6.6584107121
 C         1.2697549812        2.0759469528       -6.5717587019
 O         0.2179659650        1.5294832206       -6.8419962623
 C         1.3610716486        3.4461617379       -5.9464441277
 C        -0.1002762188        4.0290917560       -5.5576505320
 C        -0.5622137694        3.1836376162       -4.2414271578
 O         0.1897336926        2.3959956411       -3.6974140874
 C        -2.0444689264        3.3104056183       -3.8300106272
 C        -2.6029120697        2.2497264683       -4.8554126588
 O        -3.3517754823        2.6144651580       -5.7257797871
 C        -2.3369345043        0.7542414762       -4.6370613740
 C        -3.6356069025       -0.1051591050       -4.4655860506
 C        -3.3338492705       -1.5151544976       -5.1367092552
 O        -2.5040539392       -1.6354363490       -6.0140444347
 C        -4.4195322781       -2.6285785876       -4.7840455729
 C        -3.6835758728       -3.3964056146       -3.6067700993
 O        -4.2181994087       -3.8035023878       -2.6194530944
 C        -2.1185094882       -3.6207462355       -3.8346097914
 C        -1.6865381992       -4.7962524667       -2.9533990844
 C        -0.1627801517       -4.7961594511       -2.6086668989
 O         0.5874560824       -3.8630988842       -2.8202063067
 C         0.1907612927       -6.1983851439       -1.8041165482
 C        -1.0783144768       -6.6624188899       -0.9520899332
 O        -2.0101194918       -7.1313058390       -1.6052385847
 C        -0.9774880394       -6.9785995797        0.5684506232
 C        -1.6507413558       -8.2817153576        0.9275494731
 C        -0.7963764701       -9.5170441739        0.6651487923
 O         0.0385202441       -9.5915022315       -0.1615797417
 C        -1.3215978453      -10.9337953619        1.3231184081
 C        -1.7926967062      -11.8627211431        0.1575287792
 O        -1.0045681676      -12.4107982865       -0.5937322579
 C        -3.2524988267      -11.8639272862       -0.2976940360
 C         0.0003933096      -11.7872878825        1.9154944124
 C        -2.3903470884      -10.7101961326        2.3718905402
 C         0.5946759522       -7.2212803787       -2.9023517704
 C         1.3607280728       -5.9647299130       -0.8614849847
 C        -5.8306462554       -2.0311801007       -4.3675953702
 C        -4.5090764907       -3.6033211262       -5.9573534622
 C        -2.2520917249        2.8206923883       -2.3690723641
 C        -2.6610805160        4.7610123198       -4.1101213154
 C         3.8458513249        1.8133776996       -6.4309141643
 C         2.4555944256        0.5573649808       -8.0871823561
 C         3.9813133346       -4.6753535820       -4.0672934012
 C         5.6034260392       -4.1558592665       -5.9603286145
 C        -1.4291300487       -4.9485794475       -7.5110544146
 C        -0.4009202859       -5.4922109787       -9.8251100252
 C        -1.6859209863        1.6929697269       -9.7183759994
 C        -3.7545216135        0.3828010233      -10.1253342391
 C        -3.5133081302       -0.3319491069      -16.4116455183
 C        -3.8634302467        2.1650455683      -16.7826828307
 C       -10.6927681053       -2.2092942095      -16.9115372558
 C        -9.7130195589       -2.4289387003      -19.3350319891
 C       -13.6210693442        1.8376087544      -22.6159676259
 C       -12.8874701297       -0.2162794989      -23.7486434291
 C        -7.4422910198        3.9538648466      -23.5555315386
 C        -6.0805322649        2.9088403103      -21.8460952598
 H        -8.9902962673        5.6780162815      -22.2115691481
 H        -7.7914529580        5.8441814942      -21.0759076455
 H        -9.3095030815        5.6804059036      -20.3597021366
 H        -8.0436048380        0.5746067780      -24.3092036660
 H        -8.7743873507        2.0691940182      -24.4586827830
 H        -9.7753247868       -0.5527009899      -23.3062293207
 H       -10.4433686688        0.2489610661      -24.6466172049
 H       -13.7093744358        0.7773287858      -19.7101250128
 H       -12.1735102416        1.6262219348      -19.7274084606
 H       -12.3842394795       -1.4683940557      -19.3019209556
 H       -12.6420319363       -0.3008695702      -17.9656911648
 H        -8.5581202474       -1.2355632017      -15.4729642779
 H        -8.6844811229        0.2793585955      -16.0454586490
 H        -6.1174456376       -1.5154625279      -16.1452644742
 H        -6.4486495329       -0.6914544030      -14.7755780231
 H        -4.2296792131        3.2222753773      -14.1740935231
 H        -2.6695622253        2.4456071439      -14.4680715666
 H        -4.3333432338        2.4760345581      -12.0052632474
 H        -2.7696905434        3.2832943256      -12.1096696862
 H        -1.9723257509       -1.5198437372      -12.4962571046
 H        -3.2178058520       -1.7292336482      -11.3602830187
 H        -0.3751872438       -3.1530877910      -11.2048652264
 H        -2.0189016956       -3.9688696649      -11.5567859315
 H         2.1674275111       -4.1465463963       -9.6900866449
 H         1.9057675838       -5.4418573204       -8.5380643488
 H         2.8286790215       -2.8260926557       -7.7362726866
 H         4.0485237612       -3.9245239397       -8.4694189008
 H         3.7515455528       -2.0748648625       -3.2151579597
 H         2.1937069979       -2.3515114409       -3.8042343034
 H         3.7943730358        0.2651872178       -4.2383093439
 H         2.1927197760        0.0351951156       -3.5314406821
 H         1.8719765429        3.9357277461       -6.8627637788
 H         1.9131187576        3.5644662686       -5.0684367852
 H        -0.8456566999        3.9403627051       -6.3027883167
 H         0.0046183271        5.0918915135       -5.2608504177
 H        -1.8057354669        0.5894671503       -3.7190341043
 H        -1.7210058308        0.4151811120       -5.4487434595
 H        -4.4389585228        0.4079697815       -5.0223123254
 H        -3.8775058035       -0.1260165550       -3.4105843851
 H        -1.5177125900       -2.7390807883       -3.6922758680
 H        -2.0936577508       -3.9409764545       -4.9026894471
 H        -2.1374898649       -5.6838256739       -3.3556709919
 H        -2.2696161190       -4.6339757464       -2.0669629368
 H        -1.5671684549       -6.1257943357        0.9987328715
 H         0.0278647032       -6.9268923074        1.0194671700
 H        -2.5225139890       -8.3634156237        0.1916358508
 H        -2.0788250929       -8.3707781202        1.9773126735
 H        -3.5426529811      -10.8973869226       -0.6510642563
 H        -3.8607880807      -12.1062331201        0.6047376102
 H        -3.4384566020      -12.5637337660       -1.1115950695
 H         0.7220243146      -11.1195320459        2.3778047517
 H         0.4740710446      -12.3688763699        1.1444573279
 H        -0.3686754273      -12.4544939713        2.6595461135
 H        -2.7297054559      -11.5906506286        2.8581613489
 H        -3.2307284730      -10.0900154179        2.0321757534
 H        -1.9250302993      -10.0643798732        3.1218946246
 H         1.2571219477       -8.0500947936       -2.6317434064
 H         1.1392585184       -6.6693111513       -3.5595358994
 H        -0.3971707116       -7.5076972282       -3.1831653339
 H         2.1739168089       -5.5046312918       -1.4427280812
 H         1.7087996293       -6.8819378498       -0.4762095371
 H         1.0612552948       -5.3107483908       -0.0750541365
 H        -5.7122731948       -1.1182134016       -3.8001500937
 H        -6.2655316529       -2.7854518289       -3.7124545619
 H        -6.4955382974       -1.8734708626       -5.2687123257
 H        -5.2421896768       -4.3338537383       -5.7491122797
 H        -3.5539558821       -3.8587623694       -6.2947598404
 H        -4.9556580771       -3.0004264891       -6.7942676507
 H        -3.2901583057        2.9432725881       -2.1225317840
 H        -1.6296522474        3.4214539063       -1.7200722981
 H        -2.0069236510        1.7404071817       -2.2229985593
 H        -2.6477765760        5.0040155156       -5.1247086275
 H        -1.8782317262        5.4065779040       -3.6229299881
 H        -3.6316483331        4.7009841445       -3.6044598574
 H         4.2681490238        2.3463997378       -7.3484682317
 H         4.6382081724        1.1414186924       -6.2326078858
 H         3.8429107775        2.6667571472       -5.7386409352
 H         1.7489946962       -0.1990640404       -8.1816100221
 H         3.4459423602        0.1789548612       -8.4005516322
 H         2.1616158466        1.3434426368       -8.7966824715
 H         4.6325187132       -5.5703281114       -3.9357882786
 H         3.0068003328       -5.1253395369       -4.0628450793
 H         3.9940503974       -3.9022513443       -3.2725657548
 H         5.7285721187       -5.1757457085       -5.9055603458
 H         6.3753257145       -3.7704230396       -5.2724094437
 H         5.7399803129       -3.7160545769       -6.9932243271
 H        -0.6649548047       -5.3474861394       -6.8749034438
 H        -2.2736462023       -5.6480030528       -7.8039746466
 H        -1.9673791848       -4.1273282381       -6.9939473020
 H        -0.1674405831       -6.3736792081       -9.2810213496
 H         0.4839802713       -5.3140756762      -10.3774081700
 H        -1.1296171751       -5.6859880334      -10.5982423364
 H        -0.7569406950        2.0330007125      -10.2540860625
 H        -1.4468451252        1.2075250537       -8.7968040987
 H        -2.3771919935        2.4231072640       -9.4604734763
 H        -3.7902147429       -0.5307754696       -9.4694620003
 H        -4.4843260453        0.2086704729      -11.0131625053
 H        -4.1781953088        1.2506071755       -9.5961168665
 H        -2.4194741632       -0.2484094771      -16.2566959351
 H        -3.7383410618       -0.4980295968      -17.4285544752
 H        -3.8608018421       -1.2420731681      -15.9680073163
 H        -2.8003117285        2.2436890235      -16.6635708118
 H        -4.1684823056        3.0817946836      -16.3303726970
 H        -4.0004098914        2.2918388957      -17.8761589724
 H       -10.2272874916       -3.1986767246      -16.7091525632
 H       -11.8031413766       -2.1917135585      -17.2064430570
 H       -10.6325324498       -1.6687156228      -16.0395306303
 H        -9.2049715070       -3.3230751708      -19.0973010694
 H        -9.0518274747       -1.9392597338      -20.1610852007
 H       -10.6249165743       -2.7339725441      -19.7508122465
 H       -13.3328910034        2.6648174509      -23.1946410302
 H       -13.7901106175        2.1739399815      -21.5573806077
 H       -14.5338026998        1.3700658447      -22.8715643982
 H       -13.1096253130        0.2949811150      -24.7078567245
 H       -13.7386263494       -0.6940479924      -23.3691444175
 H       -12.1673547392       -1.0376853020      -24.0286189292
 H        -6.9729385744        3.3004676419      -24.3141587682
 H        -6.7987609214        4.7958443239      -23.4314451478
 H        -8.4348403600        4.0664390256      -23.9925886353
 H        -6.0571057147        2.4005873935      -20.8680851500
 H        -5.5997939297        3.8389732129      -21.7109954931
 H        -5.5209147290        2.3797301858      -22.6335581287
 Na       -7.8314824696        1.2684477492      -19.0111975504
 Na       -0.5901851892       -0.6830332687       -7.3919287330
