232

 C        -8.6761602465        5.2821935860      -21.1598049614
 C        -8.2168613129        3.8260718759      -21.0613036174
 O        -8.4723898328        3.2707952419      -19.9845250438
 C        -7.5320462219        3.1038486905      -22.2024710407
 C        -8.1270048894        1.6948249080      -22.4095388554
 O        -7.8934866793        0.8959095562      -21.4959589723
 C        -8.7208380311        1.3394352398      -23.7657408245
 C       -10.0664302542        0.5927758873      -23.6966809193
 C       -11.1947204614        1.4293892255      -23.0561425691
 O       -10.8464652615        2.4213354316      -22.4641999796
 C       -12.7232767300        0.7728207405      -22.8077123277
 C       -12.3782237181        0.0081324058      -21.3927654779
 O       -11.7471968053       -1.0313684120      -21.5236878862
 C       -12.5782678089        0.5640270859      -20.0300202282
 C       -12.1935912741       -0.4270521100      -18.9252861976
 C       -10.6844665541       -0.2634710263      -18.5584866578
 O       -10.1425813457        0.7941177666      -18.7104436088
 C        -9.8798224824       -1.5036069861      -18.0800121581
 C        -8.3496841213       -1.0428261507      -17.6827403315
 O        -7.5537565902       -0.9836787686      -18.5374471127
 C        -8.0859280733       -0.5408443064      -16.2652298032
 C        -6.5928013774       -0.5895628498      -15.9040772004
 C        -5.9173757744        0.6780647601      -16.4354191099
 O        -6.5991606766        1.4773348156      -17.0768415929
 C        -4.4783953638        0.9798762931      -16.0151172013
 C        -4.3724961512        1.1059070948      -14.4407989211
 O        -4.9350696073        0.3348818566      -13.7009991126
 C        -3.5319849320        2.3619702474      -14.0263534511
 C        -3.3251878663        2.3204037306      -12.5066814636
 C        -2.2940544437        1.2220841362      -12.1088025939
 O        -1.6535661824        0.5922063556      -12.9521278079
 C        -2.3195353494        0.6518632408      -10.5574407861
 C        -1.6457057590       -0.7150712962      -10.5084788435
 O        -0.7587837602       -0.9921859695       -9.6733617329
 C        -2.1278320437       -1.7855927805      -11.5008595617
 C        -1.5406935776       -3.1175845320      -11.0734273671
 C        -1.6557288728       -3.3479603015       -9.4954911391
 O        -2.5147335980       -2.7812645620       -8.8273147204
 C        -0.6974191700       -4.4130757191       -8.7958821426
 C         0.5842161975       -3.6556470526       -8.2855304305
 O         0.5698042231       -2.5651238079       -7.8504517150
 C         1.8730124457       -4.3687358386       -8.5958000133
 C         3.0813439053       -3.9513976591       -7.7864772007
 C         3.0989003143       -4.5486981873       -6.4323344557
 O         2.3298407523       -5.3519902638       -5.9703634341
 C         4.1746483448       -3.9779801072       -5.4229763259
 C         3.7868863861       -2.3964174342       -5.3120896944
 O         3.8882455747       -1.6572151954       -6.3010327591
 C         3.1636617120       -1.7664490768       -4.0222265039
 C         2.8809688385       -0.2852549955       -4.3170325122
 C         2.2076891384       -0.1250559511       -5.7018444614
 O         1.2034693110       -0.7702561810       -5.8377220198
 C         2.5232501082        1.0413717392       -6.6891768347
 C         1.2541467504        1.9530826246       -6.4631235417
 O         0.1448860311        1.7329506320       -6.8584863449
 C         1.4715358487        3.4036972156       -5.8437289847
 C         0.0422944273        3.9556365816       -5.4627616141
 C        -0.5377324104        3.1420865468       -4.2974991696
 O         0.1758205043        2.3337200789       -3.7647461429
 C        -2.0154442286        3.3017229197       -3.8461459083
 C        -2.7434900136        2.1795341452       -4.7823918295
 O        -3.3733530946        2.5012568600       -5.7798816798
 C        -2.2714066787        0.7498143728       -4.6462477834
 C        -3.5217524533       -0.0893511010       -4.6387789865
 C        -3.3887418499       -1.3890138176       -5.3681345283
 O        -2.3404435306       -1.7308191979       -5.8835293244
 C        -4.3660772289       -2.5698667775       -4.8873045574
 C        -3.6599014252       -3.4425609917       -3.6353611900
 O        -4.3045816651       -3.8846560448       -2.7113128751
 C        -2.1736439623       -3.5969995809       -3.7293434125
 C        -1.7593881733       -4.7758632795       -2.8829740507
 C        -0.3423559708       -4.7843969685       -2.4291485631
 O         0.4754329793       -3.9121282001       -2.7002282408
 C         0.1620310719       -6.0727686986       -1.7742804273
 C        -1.0257184786       -6.8239260101       -0.9653512818
 O        -1.9607326568       -7.0216052436       -1.6989864389
 C        -1.1121472437       -7.0103009295        0.5295043487
 C        -1.7551086614       -8.3523103016        0.9534373374
 C        -0.8564946382       -9.6609037599        0.5330006557
 O         0.0266785242       -9.5621615041       -0.2860924961
 C        -1.2059771712      -10.9245065279        1.2982371605
 C        -1.7229599318      -11.8130123715        0.0072649850
 O        -0.9204711657      -12.3574658152       -0.7206683517
 C        -3.2632860463      -11.9802445676       -0.0981958595
 C         0.0626351760      -11.5216131560        1.8901782183
 C        -2.2909716571      -10.7424376161        2.2690802257
 C         0.4765826166       -7.1884544363       -2.9040631879
 C         1.4794866800       -5.8094730513       -0.8712715164
 C        -5.7604529565       -2.1308782534       -4.3961146198
 C        -4.6660962115       -3.5635307027       -6.0123771049
 C        -2.2076889010        2.8162912870       -2.3851033003
 C        -2.5705813279        4.6649377812       -4.1306790510
 C         3.8058405398        1.7233638532       -6.2736704829
 C         2.4949178733        0.6598700094       -8.2373745275
 C         4.0058287076       -4.7672236032       -4.1100699328
 C         5.7486285991       -4.0326728631       -5.9840122518
 C        -1.3906528581       -4.9399742435       -7.5347471459
 C        -0.4132329051       -5.5998493899       -9.8144949424
 C        -1.5895515253        1.6576932027       -9.6406567531
 C        -3.8235154212        0.3258475088       -9.9564853709
 C        -3.5057534256       -0.2178989808      -16.3351630456
 C        -4.0186416542        2.1863008685      -16.8016592156
 C       -10.6988071176       -2.1466559614      -16.8670167175
 C        -9.7787972579       -2.4618743957      -19.2432665068
 C       -13.9349087377        1.8526748553      -22.6424337011
 C       -12.9175621776       -0.3484485296      -23.8149688154
 C        -7.6001118759        3.9973322999      -23.5086253622
 C        -5.9837786673        2.8293629128      -21.8032255872
 H        -9.3126997371        5.4814637701      -22.0571821407
 H        -7.8234389128        5.8910530769      -21.4787952831
 H        -8.9927541366        5.7128626712      -20.2787783198
 H        -8.0643867965        0.6365640447      -24.4155696260
 H        -8.7916198390        2.2517189263      -24.3753830968
 H        -9.9822592358       -0.3193645395      -23.0331520950
 H       -10.3552687186        0.1421561392      -24.6475505786
 H       -13.6298980063        0.8636403841      -19.9002312176
 H       -12.0548422687        1.5157305226      -19.9382014283
 H       -12.3541159513       -1.4622576128      -19.3118829799
 H       -12.8943527470       -0.3013339302      -18.0567735619
 H        -8.7268486034       -1.0075943308      -15.5132607655
 H        -8.5320425607        0.4252545879      -16.2055637026
 H        -6.1810438665       -1.4318799772      -16.3729150144
 H        -6.3204295124       -0.8283320459      -14.8758667773
 H        -3.9402990649        3.2761900572      -14.4592782392
 H        -2.5175002967        2.1979504813      -14.4832756505
 H        -4.3202744216        2.0256763360      -12.1116672861
 H        -3.0125985457        3.2789131261      -12.0642556541
 H        -1.9706457103       -1.5945933798      -12.5131675792
 H        -3.2416024467       -1.6878261952      -11.4365334938
 H        -0.4832567441       -3.1839099953      -11.3086536042
 H        -2.1565662612       -3.9829264359      -11.5558391861
 H         2.2315478809       -4.1423922196       -9.7550005023
 H         1.8149077175       -5.3929433789       -8.4411306188
 H         3.0735467031       -2.8672340873       -7.6750018356
 H         3.9259906893       -4.2475245842       -8.3994594165
 H         3.8391574829       -1.8711953846       -3.1587156835
 H         2.2292749572       -2.2814476874       -3.6611943422
 H         3.8078772777        0.2678113977       -4.3405976819
 H         2.2374707942        0.1958588685       -3.5128451721
 H         1.9109081146        3.9294398106       -6.6397682561
 H         2.0805932316        3.5299195943       -4.8943893235
 H        -0.6395217696        3.6448621472       -6.2467204652
 H        -0.0302217234        5.0748259544       -5.3837665651
 H        -1.7384633861        0.5564783892       -3.7584745401
 H        -1.6761045072        0.6141276798       -5.5295021975
 H        -4.3378815284        0.5439193630       -5.0238710947
 H        -3.7339808354       -0.3416913072       -3.6438569912
 H        -1.7799800472       -2.6380029132       -3.4002096184
 H        -1.9155010132       -3.7363225149       -4.7726484299
 H        -2.0881167749       -5.6708651544       -3.3853540773
 H        -2.3950911075       -4.7580885172       -2.0246451990
 H        -1.7337621822       -6.1569207305        0.9206075715
 H        -0.1185813665       -6.8903650155        1.0283748226
 H        -2.7532513278       -8.3703668082        0.5006534974
 H        -1.8896717916       -8.4037690187        2.0989892647
 H        -3.8639791914      -11.0804062278       -0.2698188036
 H        -3.5390039487      -12.4540858411        0.8840954609
 H        -3.5169055744      -12.6429784444       -0.9331560397
 H         0.8396929087      -10.8295079847        1.8270153691
 H         0.3375115742      -12.3962935835        1.3056899728
 H        -0.0893175466      -11.8267339481        2.9197107654
 H        -2.6293028810      -11.6636130137        2.7867540791
 H        -3.1479149897      -10.3020047237        1.7008945113
 H        -2.0855354232      -10.0260407592        3.0485477942
 H         0.6100030207       -8.1049309739       -2.4067955903
 H         1.3855190655       -6.9691982480       -3.4134358302
 H        -0.5284856756       -7.2690712315       -3.3304956552
 H         2.3683426626       -5.6808010932       -1.5223027658
 H         1.6393856908       -6.7018731602       -0.2740533144
 H         1.3799552581       -4.9199174253       -0.1805076102
 H        -5.8326101149       -1.5809080905       -3.4261943356
 H        -6.2390423304       -3.1375765615       -4.2371857905
 H        -6.2535995618       -1.6679966941       -5.1927857769
 H        -5.3390211162       -4.2741785363       -5.6615187067
 H        -3.7840243405       -3.8733845388       -6.5345273367
 H        -5.2297894920       -3.0136467878       -6.6843162416
 H        -3.2784945011        2.7196107040       -2.2461590148
 H        -1.7706237053        3.4611390785       -1.6096891718
 H        -1.7808662385        1.8421743869       -2.3058422479
 H        -2.7932382416        4.7529776538       -5.1678754169
 H        -1.7706074838        5.3049446749       -3.9037504579
 H        -3.4497273563        4.7171982058       -3.4401216727
 H         4.1313229932        2.4777100215       -7.0311086294
 H         4.6938128529        1.0344419473       -6.2237866325
 H         3.7576611064        2.3622622221       -5.4035588350
 H         1.4921491050        0.2227805876       -8.4915224896
 H         3.2799678051       -0.0505825232       -8.5609968504
 H         2.6163992882        1.5901301505       -8.8053146760
 H         4.5644292805       -5.6954547208       -4.3033950150
 H         2.9739706661       -5.1689562309       -3.9744072533
 H         4.2799846561       -4.2178286344       -3.2287192260
 H         6.2404034691       -4.8918175984       -5.6055759128
 H         6.2920073619       -3.2144215087       -5.5084660138
 H         5.7833243760       -3.8413622970       -7.1005846986
 H        -0.7312731449       -5.6369182510       -7.0597067251
 H        -2.4018706259       -5.3036586752       -7.8508239625
 H        -1.6318278799       -4.1237385772       -6.7901769912
 H        -0.0947375721       -6.4104818501       -9.2164494910
 H         0.3564011849       -5.5687157143      -10.6944716965
 H        -1.3441938686       -5.8299663303      -10.2817145968
 H        -0.6023759799        1.6994897053      -10.0098175391
 H        -1.6500170666        1.3080014673       -8.6043248969
 H        -2.1460769465        2.6077808990       -9.6100761585
 H        -3.6254933319       -0.1328545273       -8.9505486027
 H        -4.4900223320       -0.2986294764      -10.5160001034
 H        -4.3777326224        1.2853120209       -9.7945302243
 H        -2.4650384441        0.0472643745      -16.0496343323
 H        -3.5623229248       -0.5144732964      -17.3545142891
 H        -3.7923910322       -1.1122830055      -15.8743174698
 H        -2.9928915588        2.6128520717      -16.4747457917
 H        -4.6209882508        3.0619305200      -16.8725921386
 H        -3.7396823117        1.9029927444      -17.8365411783
 H       -10.0678736361       -2.6519267212      -16.1796066286
 H       -11.5884855164       -2.7003135613      -17.2685340968
 H       -11.0958039477       -1.2632923026      -16.2811144933
 H        -9.2352237504       -3.3078687173      -19.0141933720
 H        -9.2454006081       -1.9818692714      -20.0138376568
 H       -10.7042383838       -2.8435342328      -19.6117740554
 H       -14.0510140427        2.4944215508      -23.5043943481
 H       -13.6485592915        2.4909183010      -21.8144719720
 H       -14.7861045313        1.3428759159      -22.2990771294
 H       -12.8505380226       -0.0265465201      -24.8220201411
 H       -13.8899043671       -0.8273699334      -23.5154319056
 H       -12.2260089557       -1.1594881758      -23.7694372789
 H        -7.3764768277        3.4475358638      -24.4358400518
 H        -6.8182953690        4.8165784808      -23.3321598992
 H        -8.5704439343        4.2923665521      -23.6979100871
 H        -5.9368616428        2.2647705505      -20.8715418803
 H        -5.3924833294        3.7732465346      -21.7129317512
 H        -5.5369142652        2.3003271770      -22.5942959385
 Na       -7.7640692449        1.3007888094      -18.9811469155
 Na       -0.5513174519       -0.5601003514       -7.3058316696
