232

 C        -8.6872687965        5.4029386313      -21.0786970274
 C        -8.2624224812        3.9199150153      -20.9382921303
 O        -8.3799609598        3.4410366061      -19.8439462431
 C        -7.5533207011        3.1230060878      -22.1639586200
 C        -8.2952666722        1.7793765780      -22.3199807869
 O        -8.3084343281        0.9572405061      -21.4268406578
 C        -8.8979442413        1.4554206593      -23.6980553441
 C       -10.1835033025        0.6113301196      -23.6243375061
 C       -11.3804278466        1.3769166969      -22.9432281237
 O       -11.3690798844        2.5560775059      -22.6549381773
 C       -12.7836625539        0.5703569413      -22.8135806762
 C       -12.3746117304       -0.2531552754      -21.5642779106
 O       -11.7993594564       -1.3210547183      -21.5768737185
 C       -12.6693291306        0.5247674777      -20.2233322163
 C       -12.1808682094       -0.2558474653      -18.9743841195
 C       -10.6944800105       -0.2181942742      -18.6762097809
 O       -10.1332981864        0.8787186774      -18.7959682392
 C        -9.9818563028       -1.4537443724      -18.0956743074
 C        -8.5361357317       -1.0893238625      -17.6624738557
 O        -7.6916638170       -1.0586141805      -18.6192924594
 C        -8.1748883871       -0.6135283456      -16.1773185983
 C        -6.6806478423       -0.5118538275      -16.0091934791
 C        -6.0523889730        0.7480082360      -16.4505984112
 O        -6.6572087668        1.4772860480      -17.2086789765
 C        -4.5227742773        1.0492400058      -16.0543730669
 C        -4.4255737364        1.3053090165      -14.5061681494
 O        -4.9916112028        0.4681107394      -13.7935284272
 C        -3.4253774804        2.3488778227      -13.9670803684
 C        -3.2704153683        2.3530895530      -12.4119655065
 C        -2.4335533083        1.0393519131      -11.9968904022
 O        -1.6566855199        0.5207276117      -12.7350813928
 C        -2.4581426249        0.6008083480      -10.4664210157
 C        -1.5633597318       -0.7714932820      -10.2873186459
 O        -0.6519670599       -0.8645762284       -9.5051718238
 C        -1.9654570854       -1.8426530307      -11.3581376327
 C        -1.5544325234       -3.2339603292      -10.9621810383
 C        -1.6352302664       -3.4053230488       -9.3953549165
 O        -2.2614017661       -2.6675614102       -8.6604715122
 C        -0.6873361256       -4.5627814600       -8.7747644727
 C         0.7798390411       -3.9021814259       -8.4303195621
 O         0.8685742155       -2.7406264944       -7.9495343537
 C         2.0345366800       -4.7583253691       -8.6694386972
 C         3.3782614517       -4.1337736498       -7.8637153020
 C         3.2370237317       -4.5514424130       -6.3339592793
 O         2.4734978572       -5.4403853088       -6.0126964450
 C         4.2574724186       -3.8567591229       -5.3755196106
 C         3.7950094766       -2.3654547756       -5.2599307491
 O         4.1084111465       -1.6458309672       -6.1797699457
 C         3.1559711115       -1.7405518750       -3.9543851257
 C         2.9447665500       -0.2625440955       -4.2765583314
 C         2.2108000376       -0.1194789285       -5.6329695876
 O         1.3575855766       -0.9603849900       -5.9233533244
 C         2.5395579013        1.0945617094       -6.5380623067
 C         1.3164090748        2.0607178591       -6.4403065134
 O         0.1935119813        1.7629995827       -6.9152946896
 C         1.5493318153        3.4696073575       -5.7261429187
 C         0.2630591433        4.1252523862       -5.1541637080
 C        -0.4089735797        3.1046666622       -4.2052545977
 O         0.1879655169        2.1265950531       -3.7542152221
 C        -1.9273237078        3.2308051489       -3.9352350731
 C        -2.7201349115        2.1874996508       -4.8205780202
 O        -3.4455393972        2.6071479582       -5.6797630017
 C        -2.2917447957        0.7317072468       -4.7053249484
 C        -3.5970437157       -0.1218829230       -4.9314835950
 C        -3.3440525230       -1.5198373333       -5.4758098339
 O        -2.3145745880       -1.8804544465       -6.0586429612
 C        -4.3687049762       -2.6355268420       -5.0549404709
 C        -3.7728161930       -3.5067832761       -3.7996895735
 O        -4.5684110931       -3.9693581443       -3.0209783258
 C        -2.2706514523       -3.5054601573       -3.5711490915
 C        -1.9197731530       -4.7726938086       -2.7973583197
 C        -0.3673215254       -4.7929396091       -2.3815128127
 O         0.3421557035       -3.7940213213       -2.3555027614
 C         0.1024801253       -6.1568157076       -1.7990435954
 C        -1.0395812751       -6.8249349682       -0.9923178348
 O        -1.9852685796       -7.3479605472       -1.5825344489
 C        -1.0605703393       -6.9633321550        0.6259952997
 C        -1.8196526135       -8.2180454835        0.9860158317
 C        -0.9752861478       -9.3819016736        0.4599271637
 O        -0.1204915462       -9.3379242855       -0.4206162718
 C        -1.1346949137      -10.8920251835        1.0642001258
 C        -1.6697878533      -11.8858600714       -0.0249286463
 O        -0.9068778097      -12.2697429003       -0.8782658551
 C        -3.0995989345      -12.4709431026        0.0016750396
 C         0.3357435002      -11.2856943136        1.6843911072
 C        -2.1312617118      -10.9173773614        2.2726440373
 C         0.6576692998       -7.1138489628       -2.9757453814
 C         1.3003172841       -5.8332562412       -0.8837609013
 C        -5.6239781657       -1.9344639830       -4.4981606972
 C        -4.5696348375       -3.5043988233       -6.2393848704
 C        -2.1298530450        2.8956882638       -2.4505749592
 C        -2.4794056183        4.6632856411       -4.2508803649
 C         3.8819879285        1.8053726307       -6.2961959772
 C         2.5714882307        0.5369551034       -8.0218579623
 C         4.3373428652       -4.5557819733       -3.8598946259
 C         5.6645625145       -3.8170205469       -5.9937635719
 C        -1.2882997992       -4.9473522337       -7.4010144268
 C        -0.5321949748       -5.7298177811       -9.7322284020
 C        -1.5520334158        1.7637385681       -9.8238963522
 C        -3.8608725509        0.6198313188       -9.8784509607
 C        -3.6038203070       -0.1411288366      -16.2718650702
 C        -4.1033224143        2.2807135853      -16.8963323077
 C       -10.7355499965       -2.0664073280      -16.8672564826
 C        -9.8678764374       -2.6426931400      -19.1370239222
 C       -13.8252557412        1.6472534339      -22.6657301910
 C       -13.0962996629       -0.3295121337      -24.0626101293
 C        -7.5073020614        3.9763724447      -23.3714068897
 C        -6.0930750356        3.0017230444      -21.8030809239
 H        -9.7273004320        5.4687546085      -21.2207584942
 H        -8.3489689435        6.0981184285      -21.8201495391
 H        -8.4648568282        5.7796471405      -20.0239786205
 H        -8.2161447928        0.7243212111      -24.1149236214
 H        -9.0019109975        2.2413473251      -24.4737957011
 H       -10.0767681260       -0.3532047464      -23.1323833551
 H       -10.3663984392        0.3129784053      -24.6827649411
 H       -13.7494466730        0.7923393953      -20.1337928367
 H       -12.2764833392        1.5843169477      -20.1609205181
 H       -12.6434853782       -1.2395587478      -18.9539898332
 H       -12.5702017346        0.2252596604      -18.1004182098
 H        -8.6350943772       -1.2588887256      -15.4407702207
 H        -8.6714757182        0.3474253297      -15.8208475806
 H        -6.1176234198       -1.2792954416      -16.6448901196
 H        -6.2875906375       -0.7924404679      -15.0328615467
 H        -3.9015277316        3.2831559547      -14.3085367593
 H        -2.4497602446        2.3280091036      -14.3828424920
 H        -4.2977037896        2.1510086788      -12.0305876472
 H        -2.8266154401        3.3262065957      -12.1275960761
 H        -1.5788849926       -1.6269894369      -12.4257378670
 H        -3.0112900405       -1.7247053792      -11.5418423760
 H        -0.5025531279       -3.4655224462      -11.1813446191
 H        -2.2311128784       -3.8434537140      -11.4087115716
 H         2.2249784122       -4.6901472190       -9.6475065243
 H         2.0071547715       -5.8760714346       -8.3343145890
 H         3.3894454909       -3.0728892254       -8.0732778845
 H         4.2450969304       -4.6557387556       -8.2996548104
 H         3.9348002554       -1.8723424097       -3.1492487234
 H         2.2879376835       -2.3184039793       -3.5850993963
 H         3.9344963737        0.2420371266       -4.3732716344
 H         2.3573706984        0.1878187269       -3.5088588518
 H         1.8692413691        4.2495793358       -6.5306208548
 H         2.3013605733        3.2970883978       -4.9613672735
 H        -0.3110595587        4.4021891207       -6.0687918245
 H         0.4712911778        5.0750368821       -4.6645280011
 H        -2.0465052660        0.5215399054       -3.6167738290
 H        -1.4790029781        0.5046617550       -5.4458485061
 H        -4.3908275566        0.4468973061       -5.3898198689
 H        -3.8408973170       -0.3678502257       -3.8516404352
 H        -2.1109056540       -2.6552204352       -2.8737604094
 H        -1.5641590900       -3.4189453155       -4.4362493064
 H        -2.2045707762       -5.6476811016       -3.4324792357
 H        -2.6114169192       -4.9043049776       -1.9111126056
 H        -1.5817097681       -6.2086712196        1.1874061214
 H        -0.1007527631       -6.9923666901        1.1014355607
 H        -2.7361699681       -8.2413094861        0.4256034175
 H        -2.0552731882       -8.2968024697        1.9840073312
 H        -3.8516859585      -11.7259911351        0.2207991998
 H        -3.1491869283      -13.2597464759        0.7309782775
 H        -3.2940925814      -12.8140423089       -1.0065020849
 H         1.0848043079      -11.0991902638        0.8538975115
 H         0.3689684614      -12.3270752210        2.0184717796
 H         0.5263653304      -10.6287794401        2.5428747790
 H        -2.2860550549      -11.9454962558        2.6160631406
 H        -3.1485042495      -10.5641111440        2.0570640013
 H        -1.6974264791      -10.4260231985        3.1920794405
 H         0.6861773775       -8.1885105507       -2.5591869425
 H         1.6659864537       -6.7329156737       -3.1351751415
 H        -0.1360522753       -7.1396072630       -3.6836719762
 H         2.1728977814       -5.5731083106       -1.5265728997
 H         1.5596388823       -6.7010712417       -0.2451498763
 H         1.0599261640       -4.9982757675       -0.2330898077
 H        -5.5259761780       -1.7870315192       -3.4601138799
 H        -6.4426844862       -2.5838376143       -4.5500867741
 H        -5.8229468368       -1.0191119370       -5.1383378172
 H        -4.8451673587       -4.4731424897       -5.7794005051
 H        -3.6387887404       -3.5448891523       -6.7817288287
 H        -5.4588947178       -3.1528080629       -6.8919576845
 H        -3.1400309734        2.5500812718       -2.2527121227
 H        -2.0655310949        3.8447574543       -1.9520852105
 H        -1.3164857975        2.2789727819       -2.0069309037
 H        -2.5892960209        4.6057680405       -5.3233183840
 H        -1.7924138412        5.4918018855       -3.8615775717
 H        -3.4236925219        4.7392035062       -3.7482717267
 H         3.8816942931        2.7269939982       -6.8820865906
 H         4.7484557607        1.2603436858       -6.4955668186
 H         3.9730768572        2.1469373533       -5.2444801118
 H         1.6083164213        0.5336736215       -8.4996274410
 H         2.9542120635       -0.4980914295       -8.1446856582
 H         3.2821078591        1.2386028060       -8.5390991371
 H         4.0476059749       -5.5971958771       -3.8071439785
 H         3.7327541116       -4.0126940611       -3.1901385408
 H         5.3991921084       -4.4775861082       -3.4866201957
 H         6.1707693280       -4.6972461870       -5.6896023623
 H         6.2957411020       -2.9950149060       -5.6244215118
 H         5.5658325193       -3.6845399171       -7.0687469220
 H        -0.7193661191       -5.7877947579       -7.0363305996
 H        -2.3432732389       -5.0589999428       -7.4995342177
 H        -1.1414831539       -4.1853171867       -6.6853059012
 H         0.3095791444       -6.4354887649       -9.4472710996
 H        -0.3310707013       -5.3989173107      -10.7000164888
 H        -1.5233092062       -6.2911545677       -9.8165497710
 H        -0.4836341098        1.3760302098       -9.7597046025
 H        -1.9863124099        2.0137871919       -8.8747809505
 H        -1.6532193650        2.6603653392      -10.3943645272
 H        -3.8818244836        0.6276085346       -8.8367834431
 H        -4.4392122169       -0.2633167123      -10.2047951199
 H        -4.4575109034        1.4372536445      -10.1541292469
 H        -2.6148640798        0.1605551401      -15.9431665295
 H        -3.5499580153       -0.5572011342      -17.2893757531
 H        -3.9501887008       -1.0615456910      -15.7367017302
 H        -3.2288727384        2.8027191614      -16.7521116516
 H        -4.8972311102        3.0454586352      -16.9028122061
 H        -3.9885387072        2.0193582140      -17.9511668784
 H        -9.9894251264       -2.3390554237      -16.0628785132
 H       -11.1282401284       -3.0248266132      -17.2308397935
 H       -11.3882441013       -1.4456955710      -16.3588673703
 H        -9.3319872761       -3.5339589759      -18.7512055178
 H        -9.3195446717       -2.3622312591      -20.1756333545
 H       -10.8419639289       -3.0408512474      -19.3904344533
 H       -14.4625986839        1.5302355595      -23.5275003546
 H       -13.3873150838        2.6527917583      -22.8448155128
 H       -14.3847492281        1.6003773815      -21.7052089029
 H       -12.7206332645        0.2213587054      -24.9326096292
 H       -14.0543624624       -0.6751848771      -24.0690861392
 H       -12.4399022299       -1.2328450546      -24.1060747403
 H        -7.0896833188        3.4269240003      -24.1924544761
 H        -7.0573738097        4.8837467099      -23.1430776303
 H        -8.5839198116        4.0397007070      -23.7402179059
 H        -5.9159894757        2.3670540737      -20.9077627130
 H        -5.7503676748        3.9974089968      -21.6552697281
 H        -5.4601345433        2.6225712600      -22.6667509303
 Na       -7.8638801026        1.3098299344      -19.2802483067
 Na       -0.6521493764       -0.6399650501       -7.2029611843
