232

 C        -8.8291071362        5.4517324278      -21.0443476322
 C        -8.2411053315        4.1278300728      -20.9144585954
 O        -8.1940580071        3.6152767578      -19.8004162402
 C        -7.6378084505        3.2134463150      -22.1401703435
 C        -8.5549458096        2.0228933366      -22.3781245203
 O        -8.6033998001        1.1690327171      -21.5182934868
 C        -9.1048123229        1.6394623173      -23.7370836694
 C       -10.2457796903        0.5786680361      -23.5568226876
 C       -11.4396145457        1.3399893377      -23.0607470069
 O       -11.3754918372        2.5705571662      -22.9262964000
 C       -12.7272149532        0.4978696417      -22.8441129691
 C       -12.4319358166       -0.2331289695      -21.5366515536
 O       -12.1024280205       -1.4051408422      -21.6950677986
 C       -12.7310627157        0.3982524348      -20.1542625319
 C       -12.2733746201       -0.3654804919      -18.9503043257
 C       -10.7704953889       -0.2980693245      -18.6991370731
 O       -10.1907691992        0.7257562312      -18.9657937246
 C       -10.0831729183       -1.5411351019      -18.0078511856
 C        -8.5315105896       -1.1521611287      -17.6827010162
 O        -7.7761471892       -1.0414080080      -18.5745958477
 C        -8.2289567835       -0.7371643698      -16.2141888987
 C        -6.7084002227       -0.4589907226      -16.0263187715
 C        -6.0222601688        0.7927158665      -16.6407515417
 O        -6.6084933136        1.5638391747      -17.3832111033
 C        -4.5658639675        1.1490844339      -16.1247097368
 C        -4.4938194155        1.3667753099      -14.4883787113
 O        -5.1818896535        0.7488594008      -13.7263037967
 C        -3.4816499256        2.4333375336      -13.9743791414
 C        -3.3936982282        2.2568955262      -12.4343188975
 C        -2.4232211942        1.1648487989      -11.9901877185
 O        -1.7521731869        0.5490326019      -12.8217366781
 C        -2.2904815579        0.8190110473      -10.5040965110
 C        -1.5584396185       -0.5369568977      -10.3723411206
 O        -0.6217597327       -0.5238270519       -9.5696748791
 C        -2.0650980569       -1.8378114766      -11.1373130902
 C        -1.3604150996       -3.1942275379      -10.7886548017
 C        -1.4329110042       -3.4901429171       -9.1964065600
 O        -2.1823866883       -2.9305738914       -8.4404399467
 C        -0.5212777771       -4.6619197196       -8.6637657723
 C         0.9400603055       -4.0693313534       -8.4040687229
 O         0.9952945029       -2.8996207037       -8.1157319908
 C         2.1805441801       -4.9764562717       -8.5341318912
 C         3.3178393148       -4.3459950343       -7.7991473071
 C         3.3590348114       -4.5146994955       -6.2448209344
 O         2.7022208090       -5.4297318628       -5.7584396907
 C         4.4722229427       -3.7979190067       -5.3348739192
 C         3.9579349265       -2.2904350236       -5.3005672842
 O         4.2061852411       -1.5020012698       -6.2019130269
 C         3.1265562922       -1.7737289660       -4.0742973018
 C         2.8783773957       -0.2561305859       -4.1392404798
 C         2.1647868844       -0.0224741465       -5.4693561109
 O         1.2091898560       -0.7195928067       -5.7704161064
 C         2.6228771970        1.1167658920       -6.5301550789
 C         1.3302905288        2.1840320870       -6.4556479225
 O         0.2650943490        1.7045898453       -6.7261156747
 C         1.6572277239        3.5766744727       -5.8410945703
 C         0.4310871345        4.1087865063       -5.0127629912
 C        -0.2715134210        3.1042099604       -4.1982991760
 O         0.1795632138        2.0461653977       -3.8148747797
 C        -1.8897249524        3.3250554501       -3.9506253114
 C        -2.5689747575        2.3107701919       -4.8355554457
 O        -3.4982038745        2.6843007103       -5.5524121947
 C        -2.2507109442        0.8256090468       -4.7200748491
 C        -3.4778674833       -0.0036502507       -5.1257573615
 C        -3.3871494697       -1.4594577877       -5.4761465543
 O        -2.4153872420       -1.7979059952       -6.1273666517
 C        -4.3940887468       -2.5680783867       -5.0442377718
 C        -3.8638140512       -3.5313088432       -3.9599502405
 O        -4.7053911680       -4.1427293961       -3.3355879746
 C        -2.3604743852       -3.5700447928       -3.5693641993
 C        -1.9721881808       -4.8405064902       -2.7959036674
 C        -0.5648416947       -4.7904684784       -2.1865348226
 O         0.1285567142       -3.7859528184       -2.1757656681
 C         0.1461995326       -6.2192759701       -1.6104694339
 C        -1.1136836950       -7.0199090090       -0.9565577471
 O        -1.9259299858       -7.4660382987       -1.7399805990
 C        -1.1569572074       -6.9057686572        0.5719552751
 C        -1.8113427337       -8.2740313089        1.1464548458
 C        -1.0330089035       -9.4341838288        0.4592440712
 O        -0.2864735045       -9.1688984560       -0.4768880962
 C        -1.1307112195      -10.8715285113        0.9984612883
 C        -1.4914166815      -11.9219054738       -0.0742831787
 O        -0.7470632336      -12.1012669182       -1.0069264797
 C        -2.7937118021      -12.7395092152        0.1033573457
 C         0.4104338563      -11.2875069192        1.2556418667
 C        -1.9564681812      -10.9299546113        2.3564764399
 C         0.5378967674       -6.9459374850       -2.9015202966
 C         1.3991426824       -5.8780598108       -0.7894185219
 C        -5.8169790522       -2.0024685907       -4.9316031272
 C        -4.5365611027       -3.5739422056       -6.2932308086
 C        -2.2385540044        3.0202593365       -2.4504043412
 C        -2.3808483490        4.7790886365       -4.2128187654
 C         4.0303433505        1.7074405190       -6.3444496484
 C         2.5912765134        0.4668284208       -7.9424688489
 C         4.4283800303       -4.6161332183       -4.0030609653
 C         5.8656738886       -3.9274663656       -5.9510770951
 C        -1.0072295338       -5.0804698104       -7.2003429369
 C        -0.6507153849       -5.9229455738       -9.5108388935
 C        -1.5524407471        1.9467785525       -9.6892014672
 C        -3.5968716970        0.6179190051       -9.8186454194
 C        -3.6913191251       -0.0919060106      -16.5288005358
 C        -3.9927103507        2.3629172821      -16.8575753658
 C       -11.0245530967       -1.9661049785      -16.8976937281
 C       -10.0409526963       -2.4950804135      -19.2052817539
 C       -14.0409519444        1.3336201269      -22.7276320462
 C       -12.9955598498       -0.4504915286      -24.0383218312
 C        -7.5752622970        4.0971806631      -23.3321364635
 C        -6.2269600614        2.8563935561      -21.5357545700
 H        -9.9713612116        5.3879751459      -21.1178478404
 H        -8.5892387238        5.9404463234      -22.0258860206
 H        -8.5743938985        6.0404715129      -20.1821580005
 H        -8.2004679101        1.2895166443      -24.2767660804
 H        -9.6513710818        2.4732969908      -24.2123256091
 H       -10.0276852307       -0.2566263239      -22.8743374877
 H       -10.5453936794        0.1663286417      -24.5178335690
 H       -13.8057686689        0.5031017568      -20.1361027332
 H       -12.5267628660        1.4398773948      -20.0830311834
 H       -12.6400481096       -1.3949180062      -19.1326282171
 H       -12.7801387340       -0.0787588948      -17.9898568837
 H        -8.5451508733       -1.5116902113      -15.4571942449
 H        -8.8343687770        0.0677433226      -15.8865753108
 H        -6.1885700406       -1.3432037895      -16.3787162609
 H        -6.4084818227       -0.4596359998      -14.9473896706
 H        -3.6216689452        3.4685524223      -14.2880162529
 H        -2.4431449868        2.1307722415      -14.3156988130
 H        -4.3846209525        2.0544750668      -12.0572722686
 H        -2.9273015936        3.1647983495      -12.0958878064
 H        -1.9995543503       -1.5975522514      -12.1520160969
 H        -3.1787076686       -1.8539542491      -11.0254428896
 H        -0.2942841031       -3.2194963994      -10.9593920353
 H        -1.9657050123       -4.0014959903      -11.3772205371
 H         2.4738317960       -5.3329984729       -9.5869826655
 H         2.0327777658       -5.8754134450       -7.9159408780
 H         3.2270411022       -3.3006164224       -8.1597436862
 H         4.2632322376       -4.8173844217       -8.0995956399
 H         3.6962637261       -2.0571941216       -3.2038064147
 H         2.2704458383       -2.4590216550       -4.0928715641
 H         3.8131264676        0.2986983129       -4.1020648829
 H         2.1244919205       -0.0171119514       -3.3436693837
 H         2.0299384390        4.2816990971       -6.5481295379
 H         2.5182202950        3.2506698127       -5.1434982045
 H        -0.2148120974        4.6583089883       -5.6865925698
 H         0.7252317747        4.9096051283       -4.3102822382
 H        -2.1005959685        0.5706752394       -3.7172194298
 H        -1.4354096867        0.5939241627       -5.3684587763
 H        -3.8905769935        0.4460672555       -6.0745422265
 H        -4.1951306285        0.1298805111       -4.3379393522
 H        -2.0157764055       -2.7854586569       -2.8723380018
 H        -1.6562034038       -3.4966143818       -4.3892254912
 H        -2.0121763337       -5.7448572128       -3.3771281721
 H        -2.6492811864       -5.0277680233       -1.9935585224
 H        -1.5947489106       -6.0044014314        1.0417014911
 H        -0.1176469938       -6.8939922102        0.9615904709
 H        -2.9255651320       -8.4118012709        1.0220794565
 H        -1.5816924214       -8.3320989784        2.2807127599
 H        -3.5550394643      -12.0677525125        0.5087446282
 H        -2.6961741579      -13.5406913476        0.8239537350
 H        -3.0775194097      -13.1246536634       -0.8734747481
 H         0.6960270368      -12.0452965041        0.5722441880
 H         0.4419068028      -11.6582787979        2.2882634423
 H         1.0896964009      -10.4271189157        1.1868057703
 H        -1.8954458358      -11.9280695430        2.7965375008
 H        -3.0162004154      -10.7786080063        2.3314226214
 H        -1.4642109660      -10.3639681593        3.0839678039
 H         1.1628218462       -7.7275564022       -2.6680629417
 H         1.0335117014       -6.1079195326       -3.4516496329
 H        -0.3836556359       -7.3730970017       -3.3120278249
 H         1.9615851689       -5.1329560699       -1.2446584898
 H         1.9918788010       -6.7534060685       -0.6306203034
 H         1.0662688107       -5.4614654452        0.1347542211
 H        -5.8615240858       -1.2390181279       -4.1228879028
 H        -6.4463382873       -2.8097086374       -4.4802531907
 H        -6.1551331926       -1.7211297660       -5.8819477330
 H        -5.0189285286       -4.5113350549       -5.9472543887
 H        -3.4890763996       -3.7511656873       -6.6890810453
 H        -5.1085458480       -3.0617529763       -7.0115973202
 H        -3.3398961232        2.9626577551       -2.3810115536
 H        -1.9268056243        3.7711712041       -1.6949858564
 H        -1.7173003396        2.1232345925       -2.1925635226
 H        -2.0540676350        5.1052188893       -5.2438142940
 H        -2.0507599508        5.2901817730       -3.3628843602
 H        -3.4870922806        4.8129023374       -4.1541181529
 H         4.2516098827        2.4641172275       -7.0877090917
 H         4.8181300553        0.8736369759       -6.3735931191
 H         4.2661933532        2.0522391197       -5.3415083907
 H         1.5911940220        0.0260780507       -8.0745413370
 H         3.1891396335       -0.3925219953       -7.9596234246
 H         2.9266480407        1.1317556282       -8.6834394926
 H         3.8202024647       -5.5454116098       -4.0800055629
 H         3.9871671027       -4.0143013404       -3.1494006643
 H         5.4010258212       -5.0109871806       -3.7743965592
 H         6.1016807972       -4.8531691616       -6.6542126463
 H         6.6184335072       -3.9044772617       -5.1863993347
 H         5.9439306031       -3.0211784350       -6.4771688320
 H        -0.1104318781       -5.4678673177       -6.6543864172
 H        -1.8180461858       -5.7924647943       -7.3283379652
 H        -1.4045943563       -4.2080868032       -6.6536382200
 H        -0.3394232128       -6.7456659489       -8.9009459024
 H        -0.0129778022       -5.7859171972      -10.4225888586
 H        -1.6323677670       -6.1236928614       -9.8055686947
 H        -0.5391026384        1.8664834046       -9.8827420225
 H        -1.7828469579        1.8730018861       -8.6109197534
 H        -1.9660927688        2.9130706331      -10.0675099386
 H        -3.5670844394        0.1350187304       -8.7916767954
 H        -4.3001349921        0.0335499489      -10.3994554754
 H        -4.1183409618        1.5995462259       -9.5462509880
 H        -2.6174853686        0.0622331138      -16.5397717047
 H        -3.9621646372       -0.3618268971      -17.5593387247
 H        -3.9359592930       -0.9937033242      -15.9995242947
 H        -2.9024272316        2.2551688276      -16.9824435888
 H        -4.1048797133        3.3116560662      -16.3346903179
 H        -4.3093355467        2.6188296494      -17.8279317244
 H       -10.8723110320       -2.9616810660      -16.5738985951
 H       -11.9960871673       -2.0468502699      -17.2991135182
 H       -10.7956812499       -1.3215972643      -15.9687743700
 H        -9.8247927791       -3.5242719373      -18.8767145637
 H        -9.3420239467       -2.2379798655      -19.8833588061
 H       -11.0052223297       -2.6141914226      -19.7341740286
 H       -14.7568364683        1.1199982365      -23.5677503389
 H       -13.7547353282        2.3555957971      -22.8443945484
 H       -14.6015089506        1.1281971487      -21.8115429804
 H       -13.1554021672        0.1698162488      -24.9274399496
 H       -13.9469069221       -1.0758838556      -23.7671654437
 H       -12.2299728309       -1.1358740750      -24.3159992134
 H        -7.3179379775        3.5300705044      -24.2189094506
 H        -6.8401158527        4.8975013225      -23.0554203018
 H        -8.4995463174        4.5759494163      -23.5410216568
 H        -6.2969181791        2.2115226649      -20.6747985281
 H        -5.7273481312        3.8538469791      -21.3338920955
 H        -5.6185522309        2.3705708083      -22.2458889978
 Na       -7.9136653489        1.1907047120      -19.2698521138
 Na       -0.3719917236       -1.0371282508       -7.3106339130
