232

 C        -8.9499379192        5.5124941243      -21.0649390252
 C        -8.3512842222        4.1108947573      -20.8676853744
 O        -8.1515660204        3.6385727873      -19.7543610736
 C        -7.5976018059        3.3583904142      -22.1146732141
 C        -8.5133113970        1.9744064536      -22.3081647561
 O        -8.7058152531        1.1939271149      -21.4336866655
 C        -9.0821521855        1.7331200167      -23.7812050158
 C       -10.2529317068        0.7025490012      -23.6942168702
 C       -11.5277059354        1.3703313528      -23.1782526596
 O       -11.5463497471        2.5777898390      -22.9477227400
 C       -12.8168931908        0.4993860922      -22.8855756327
 C       -12.5495320185       -0.3303711193      -21.5764653794
 O       -12.1802137330       -1.4860152654      -21.5071154857
 C       -12.8410889125        0.3951074794      -20.2457582144
 C       -12.3599579182       -0.4358914340      -19.0401088908
 C       -10.8988938052       -0.2558373756      -18.7129896951
 O       -10.2907448959        0.7676557386      -19.0751370248
 C       -10.1454859370       -1.4865284199      -18.0698970588
 C        -8.7027584505       -1.0630683755      -17.6820705619
 O        -7.7719222310       -1.1112415370      -18.4960713528
 C        -8.2246386309       -0.7016028614      -16.2363322855
 C        -6.7364488791       -0.3975478512      -16.0786368759
 C        -6.1351258127        0.8838982090      -16.5620176536
 O        -6.5435997979        1.5773656899      -17.4775682925
 C        -4.5637805451        1.1139503366      -16.1133661129
 C        -4.4923975712        1.3380105677      -14.5646308845
 O        -5.3316242530        0.8244287674      -13.8264026094
 C        -3.5314573171        2.3674094734      -13.9917115196
 C        -3.4114854612        2.3261572196      -12.4363734713
 C        -2.3612801549        1.2645404410      -12.0535981275
 O        -1.8340274795        0.5525893494      -12.8662862902
 C        -2.2545046240        0.8986619479      -10.5448973096
 C        -1.4438587192       -0.4624052479      -10.3913298311
 O        -0.5515008474       -0.5430981319       -9.6029717281
 C        -2.0104526371       -1.7969584377      -10.9006796163
 C        -1.2363494818       -3.0105633356      -10.5677384783
 C        -1.4100095102       -3.5404819344       -9.1359987130
 O        -2.1803818015       -2.9852087767       -8.4094882147
 C        -0.5006320548       -4.7704637893       -8.5798818128
 C         0.9225315353       -4.1408881406       -8.3980069159
 O         1.1685369146       -2.9253894259       -8.1631779737
 C         2.1151969900       -4.9695280618       -8.3554748473
 C         3.4681615807       -4.3257124711       -7.7314903401
 C         3.4825074573       -4.6061372688       -6.2156086411
 O         2.6444278135       -5.3842379654       -5.7765428518
 C         4.4589837672       -3.8088744610       -5.2917576639
 C         4.0405898600       -2.3349291827       -5.2795447972
 O         4.3470948772       -1.6480914865       -6.2192798488
 C         3.1697707166       -1.7540688545       -4.0554194956
 C         2.8984133625       -0.2719799118       -4.1982736974
 C         2.1095044237        0.0164610081       -5.4316331687
 O         1.0808922420       -0.6520664528       -5.5819901308
 C         2.5649910744        1.0222085540       -6.5506518647
 C         1.4314450751        2.0764935419       -6.3205765926
 O         0.3047681740        1.7749313892       -6.7028329441
 C         1.6434258503        3.5025385381       -5.7699173907
 C         0.4817552520        4.0886519810       -5.0848818454
 C        -0.2602491182        3.1100935896       -4.1990980639
 O         0.2114738621        2.0598978840       -3.7932716068
 C        -1.7701261631        3.3601607395       -3.9050112458
 C        -2.6213103717        2.3514607472       -4.8816858407
 O        -3.5074700369        2.7702719180       -5.5592204520
 C        -2.3437992425        0.8295478789       -4.7529745527
 C        -3.6029833877        0.0971801497       -5.1458067049
 C        -3.3487784639       -1.4185634331       -5.5807463268
 O        -2.2697619312       -1.8446125953       -6.0720718209
 C        -4.4143046163       -2.4620526659       -5.2999808345
 C        -3.9059674008       -3.5144842653       -3.9310046737
 O        -4.7632567355       -4.1946681988       -3.4693505999
 C        -2.3788941426       -3.6054932565       -3.5767885934
 C        -2.0594532333       -4.9080979434       -2.7696902238
 C        -0.6304342490       -4.8231734747       -2.1206926385
 O         0.0416903753       -3.8116037518       -2.0544812257
 C         0.0545526856       -6.0905251224       -1.6466590542
 C        -1.0728762868       -6.9602817926       -0.9480703717
 O        -1.9412019259       -7.3952444984       -1.6996056600
 C        -1.3346984389       -7.0017902571        0.5900823748
 C        -1.7555317707       -8.3848615200        1.1250146064
 C        -0.9803819526       -9.4910822510        0.4556610978
 O        -0.2687432137       -9.2186814522       -0.5396611583
 C        -0.9605217197      -10.8968856399        1.0229790351
 C        -1.5096709443      -11.8386742026       -0.1451876091
 O        -0.8431003568      -12.0256694770       -1.1198363593
 C        -2.7145623855      -12.8188433249        0.1531089843
 C         0.5980326098      -11.2247626264        1.3916375319
 C        -1.8132500627      -11.0401439875        2.2675919451
 C         0.4775454933       -6.8485450566       -2.9654340769
 C         1.3149246075       -5.8300635780       -0.8482416271
 C        -5.8370322906       -2.0872210642       -4.9015985256
 C        -4.4160433144       -3.6413959548       -6.3812401690
 C        -2.1739149709        3.0441454809       -2.4859026424
 C        -2.3130384493        4.8399274939       -4.1525185815
 C         4.0274868109        1.5335854415       -6.2978862609
 C         2.5681797436        0.5844890322       -7.9837788161
 C         4.5710853898       -4.5749467645       -3.9495046608
 C         5.8484319819       -3.8595665601       -6.0388940026
 C        -0.8892132837       -5.0873233022       -7.1283588165
 C        -0.5331676720       -6.0234576084       -9.4724230666
 C        -1.5292461484        1.9522400000       -9.6717560151
 C        -3.6318581539        0.6113444412       -9.8340574394
 C        -3.6872252260       -0.0958499844      -16.5378025159
 C        -4.0732086021        2.3679394249      -16.8511960553
 C       -10.8020442778       -2.0293491424      -16.7791737685
 C       -10.1276412355       -2.6636922070      -19.2430630822
 C       -14.0803653721        1.3823808229      -22.8116282342
 C       -12.9935341376       -0.5904195708      -23.9544583961
 C        -7.4577170585        4.2920074770      -23.3253341222
 C        -6.3218933282        2.7548860091      -21.6580728848
 H        -9.9772381271        5.4286521334      -21.2982726074
 H        -8.6021751800        5.9560180459      -21.9854780814
 H        -8.8885560642        6.1461271067      -20.1371890666
 H        -8.1738234653        1.3719743918      -24.3250675323
 H        -9.5502911263        2.7434724806      -24.1425117583
 H        -9.8776359760        0.0053306554      -22.9031268499
 H       -10.5269830324        0.1387349993      -24.6238188651
 H       -13.7926120202        0.9080352105      -20.1525426977
 H       -12.2720461531        1.3084912514      -20.2380261687
 H       -12.6439608202       -1.4969314688      -19.1648044406
 H       -12.8914794824       -0.1535206045      -18.0670655478
 H        -8.4090086852       -1.5399897143      -15.4817187319
 H        -8.7808907443        0.0840751612      -15.8219822804
 H        -6.1647414219       -1.1971638200      -16.5160180266
 H        -6.4635271351       -0.4554209757      -15.0260699676
 H        -3.9681404560        3.3347733549      -14.2391468567
 H        -2.5460910647        2.3314933605      -14.5334106170
 H        -4.4113254203        1.8449207450      -12.2353905265
 H        -3.2975100889        3.3126204354      -12.0324251636
 H        -2.3318158004       -1.7655504412      -11.9454779756
 H        -2.9639758051       -1.7795402976      -10.4170436826
 H        -0.1336358578       -2.8370661208      -10.5932988429
 H        -1.5832445874       -3.7953052747      -11.2791626141
 H         2.3631076818       -5.2773220203       -9.3908562736
 H         2.0030743144       -6.0271352415       -7.6924117011
 H         3.3394099155       -3.2668335264       -7.9930991463
 H         4.3173354080       -4.7439501530       -8.1745270815
 H         3.6686223859       -1.9944526565       -3.0754395054
 H         2.3286020735       -2.4500196570       -4.1521857585
 H         3.8593917417        0.2845146500       -4.2280356680
 H         2.2255691927       -0.0295953613       -3.3912953183
 H         1.8773028494        4.0886615193       -6.6624833259
 H         2.5724364863        3.5433369513       -5.1720545904
 H        -0.2300227089        4.5417542634       -5.8645821702
 H         0.8316707469        5.0089817080       -4.6455912503
 H        -2.0783660487        0.4766290966       -3.7640052896
 H        -1.6300670536        0.5968596853       -5.5045400500
 H        -4.1030816393        0.5760391211       -5.9600717727
 H        -4.2785618860        0.1253832477       -4.2548432435
 H        -1.9352210251       -2.8325589893       -2.9401411271
 H        -1.7255633388       -3.5715337159       -4.4235617074
 H        -2.0102225811       -5.7777335596       -3.4038726728
 H        -2.8282714592       -5.1191551518       -2.0450200799
 H        -2.2691253216       -6.4239402263        0.7575069987
 H        -0.6239277201       -6.4989629739        1.2968868093
 H        -2.8834325779       -8.5302361054        1.0501314839
 H        -1.5068927063       -8.4215436224        2.1876109087
 H        -3.5986168730      -12.2417704364        0.5352306414
 H        -2.4825113500      -13.5598339078        0.8964547835
 H        -2.9095387318      -13.2927419279       -0.8261488120
 H         1.0218530034      -12.0630645985        0.8520243499
 H         0.6577777906      -11.3292049716        2.4395137415
 H         1.1322053688      -10.3288085367        1.1546500089
 H        -1.8436738599      -12.0457237557        2.6672764891
 H        -2.8501153728      -10.8463074485        2.1371298121
 H        -1.3902534903      -10.4687269300        3.0838225515
 H         1.2340785099       -7.4950770329       -2.4846562089
 H         0.8838122934       -6.0709596828       -3.6481406163
 H        -0.2884272185       -7.4803607757       -3.2846599176
 H         1.9093165677       -5.2184482264       -1.4927051789
 H         1.8612151900       -6.7826063616       -0.6543719784
 H         1.1654733915       -5.2055731731        0.0171495879
 H        -5.7410949431       -1.2914225850       -4.1606195626
 H        -6.2829065290       -2.8659824834       -4.3169511029
 H        -6.4869652440       -1.8423864965       -5.7808634210
 H        -5.1225824463       -4.3557106106       -6.0254021637
 H        -3.4720587383       -4.0706826446       -6.3000981782
 H        -4.5730204782       -3.2973369131       -7.3758331785
 H        -3.2371399024        3.2934018636       -2.4823867259
 H        -1.7247270071        3.6666259554       -1.7226574853
 H        -1.9181391378        2.0366092292       -2.1959642014
 H        -2.1174527444        5.0963493399       -5.2078327261
 H        -2.0104905497        5.4792889128       -3.3480080607
 H        -3.3430661806        4.8083083167       -4.0690326665
 H         4.2508719818        2.3160467266       -6.9911788056
 H         4.7536249011        0.7178440656       -6.4421754985
 H         4.3310067803        1.7771281250       -5.2371040469
 H         1.7398156584       -0.0610347547       -8.2313653510
 H         3.3965927941       -0.0894355083       -8.0652952987
 H         2.7765599613        1.4443486005       -8.6161710676
 H         3.9990242658       -5.5032435160       -4.0094568312
 H         4.1296166873       -3.9964184903       -3.1245889723
 H         5.5811919790       -4.9747273344       -3.7549054910
 H         5.9830477376       -4.7267789477       -6.7464453923
 H         6.5747086595       -4.0270773984       -5.2041921654
 H         6.1082152148       -2.9261633285       -6.4794205535
 H         0.0320034279       -5.4568777893       -6.5247387031
 H        -1.7169629228       -5.8125339547       -7.1698717059
 H        -1.2545618875       -4.1502207509       -6.6838925845
 H        -0.3174622062       -7.0062989839       -8.9502215178
 H         0.0348943861       -5.7777480617      -10.2990288527
 H        -1.5873122593       -6.1382768444       -9.8034125072
 H        -0.6142805590        2.2013904947      -10.2217519172
 H        -1.2742901486        1.5015223111       -8.7211900157
 H        -2.1613319302        2.8423735366       -9.5466341761
 H        -3.5482644881        0.0552127510       -8.8948154370
 H        -4.4099727702        0.0613394561      -10.4235756864
 H        -4.0927880652        1.5498052463       -9.4614463482
 H        -2.7088662921        0.2015232072      -16.4184114284
 H        -3.7377101893       -0.3717602871      -17.5983445132
 H        -3.8060830982       -1.0412024289      -15.9688502300
 H        -3.0450037584        2.5220339467      -17.0926544244
 H        -4.4169590418        3.3298692258      -16.3092252797
 H        -4.5580590822        2.5450067097      -17.8316942833
 H       -10.6231569579       -3.1284510077      -16.7143579891
 H       -11.8341490618       -2.1003822283      -16.9385480724
 H       -10.4133330242       -1.6115927112      -15.8563676080
 H        -9.9609326277       -3.5691604500      -18.7524281705
 H        -9.2702526025       -2.5494417907      -19.9597137954
 H       -10.9484951629       -2.7542084089      -19.8078106210
 H       -14.6206222842        1.2660620189      -23.7462960920
 H       -13.8854208741        2.4029880346      -22.6462190032
 H       -14.8049019221        0.8999413165      -22.1154078833
 H       -13.1126726605       -0.2657025770      -25.0282914487
 H       -13.7622123454       -1.2972688709      -23.7083362008
 H       -12.0229152928       -1.1095164846      -23.8632583532
 H        -6.8993864701        3.7736166104      -24.1105241847
 H        -6.9178676194        5.1496740929      -22.9898741742
 H        -8.4687413153        4.6983209587      -23.7007980317
 H        -6.5366661275        2.0323598911      -20.9021639563
 H        -5.4937392580        3.4228086462      -21.4505553857
 H        -6.0339252674        2.1077137709      -22.4957796709
 Na       -7.9370795385        1.2371116403      -19.2217210908
 Na       -0.2415856157       -1.2157079864       -7.3877430681
