232

 C        -9.1267080213        5.2464922204      -21.0626640384
 C        -8.2995152790        4.0734556700      -20.8270504589
 O        -8.1105994541        3.5744822291      -19.7341500183
 C        -7.6639980757        3.3211358643      -22.1465990889
 C        -8.5967389974        2.0793180298      -22.4023494577
 O        -9.0140403848        1.3664913656      -21.5309370619
 C        -9.3063864469        2.1370943643      -23.7534842867
 C       -10.3786008251        0.9582839390      -23.9447483255
 C       -11.7505707090        1.4289552615      -23.2447021235
 O       -11.8389429473        2.6011685739      -22.8550139838
 C       -12.9611659913        0.2942042661      -22.9152065317
 C       -12.6580166597       -0.4265551213      -21.4881702251
 O       -12.3522044338       -1.6078804168      -21.3942839270
 C       -12.9752549208        0.3821748557      -20.1513887336
 C       -12.4442499767       -0.3729421475      -18.9096722560
 C       -10.9431310280       -0.3332266156      -18.7481228193
 O       -10.3637056565        0.7608271128      -18.9155895155
 C       -10.1722487276       -1.5048949873      -18.1034243058
 C        -8.7245241044       -0.9915864626      -17.8472451901
 O        -7.9938713638       -0.9986665781      -18.7781849087
 C        -8.3434455478       -0.3453301567      -16.4685835109
 C        -6.8050928978       -0.4550271741      -16.2979892569
 C        -6.1129375309        0.8244632543      -16.7140777714
 O        -6.6814447642        1.5768412934      -17.5286545430
 C        -4.7202457803        1.2450775044      -16.1345979924
 C        -4.7204719309        1.4463372571      -14.5668404443
 O        -5.5338766111        0.9388311153      -13.8264455403
 C        -3.6696128950        2.3821387818      -14.0042323625
 C        -3.4552282055        2.1507508457      -12.5081320186
 C        -2.4877843868        1.0505510720      -12.1198264106
 O        -1.7703395514        0.4535564410      -12.8643971801
 C        -2.2961458800        0.9003026124      -10.5496878323
 C        -1.3576297776       -0.3481694749      -10.3033438818
 O        -0.3987876556       -0.1153764426       -9.6008506053
 C        -1.8495982742       -1.8258744189      -10.6560165593
 C        -0.8725245016       -2.9418027244      -10.3241401463
 C        -1.1465620297       -3.5784853034       -8.9406399473
 O        -2.0711311891       -3.2417160731       -8.2552094215
 C        -0.1880984190       -4.7317264633       -8.3620680857
 C         1.3592622578       -4.0863590251       -8.2660180357
 O         1.4481659183       -2.8658637874       -8.1707104176
 C         2.4752612780       -5.0931384725       -8.3462639528
 C         3.7324310568       -4.7167022107       -7.5330702952
 C         3.5559406572       -4.6376470487       -5.9829000065
 O         2.6388555118       -5.1469543765       -5.3432832664
 C         4.7203060251       -4.0136219895       -5.2509890396
 C         4.2320675208       -2.4413809222       -5.2407919719
 O         4.3498462963       -1.7590964954       -6.2258438016
 C         3.3257132414       -1.9436224464       -3.9910597782
 C         2.9022506185       -0.4622310557       -4.1005529323
 C         2.1746209516       -0.2332708627       -5.4173368785
 O         1.1203747751       -0.8717348982       -5.6703979983
 C         2.5616340481        0.8944342096       -6.3878114974
 C         1.3676319286        2.0188236413       -6.3416225549
 O         0.2874708589        1.8261313603       -6.8759129972
 C         1.6900210748        3.3788109646       -5.5996461976
 C         0.3504834613        3.9497643431       -5.2891611738
 C        -0.2269547096        3.0875211517       -4.2729281026
 O         0.3929131253        2.2543987207       -3.6269611361
 C        -1.8059189873        3.4003151141       -3.9665599838
 C        -2.6886057914        2.5089642729       -4.9936269149
 O        -3.5321292329        3.0671451205       -5.6355163806
 C        -2.3589610756        0.9220984266       -5.0147284562
 C        -3.5846646882        0.0691203107       -5.1604875511
 C        -3.2468448913       -1.3899591225       -5.5780883227
 O        -2.0868995024       -1.6491429487       -5.8462869181
 C        -4.3773547217       -2.6305887415       -5.3698396650
 C        -3.9442314092       -3.4234887689       -4.1277507466
 O        -4.7139676390       -4.1709875374       -3.5973155113
 C        -2.4525475604       -3.5467231142       -3.6883302968
 C        -2.1637492450       -4.7899127302       -2.8519289002
 C        -0.9458856238       -4.6666813661       -1.9819401175
 O        -0.3836338323       -3.5944175499       -1.7388071078
 C        -0.3263439100       -6.1283151631       -1.6019865700
 C        -1.4460550050       -7.0113548170       -1.0023207408
 O        -2.3067711719       -7.4129782638       -1.7685959655
 C        -1.3035441088       -7.1688208711        0.4901735682
 C        -1.7276254769       -8.5582775135        0.9169305949
 C        -0.6108020691       -9.5086942669        0.4642271544
 O         0.1190062892       -9.2137953717       -0.5135270011
 C        -0.6750456589      -10.9135279806        1.0121338761
 C        -1.1988560477      -11.8592304517       -0.1565525240
 O        -0.8546398888      -11.6842553285       -1.2892260757
 C        -2.2321771250      -12.9874498133        0.1651103280
 C         0.7836220422      -11.4987281760        1.1882577129
 C        -1.4520126312      -11.0694145005        2.3632387977
 C         0.1684792426       -6.9130214221       -2.8899735760
 C         0.9239957704       -5.8223090082       -0.7150253332
 C        -5.8287075765       -1.9845990161       -5.2142360816
 C        -4.2952140196       -3.4837214872       -6.6479879124
 C        -1.9482080632        2.8888996733       -2.5147841906
 C        -2.2167157576        4.9223385897       -4.0449672842
 C         3.9278402348        1.5344885025       -6.2794806384
 C         2.5383095678        0.2686498281       -7.8127063159
 C         4.9832904525       -4.7250456940       -3.9248618169
 C         6.1176592715       -4.0878864634       -6.0726856694
 C        -0.6759545861       -5.1945589163       -6.9714493601
 C        -0.2779644116       -5.9391412202       -9.4152191482
 C        -1.6235644983        2.2740856601       -9.9741272355
 C        -3.5654009894        0.7026740968       -9.8412656606
 C        -3.7001778557        0.1479846532      -16.1938105842
 C        -4.1853896120        2.4305589313      -17.0188524160
 C       -11.0119664976       -1.9642311237      -16.8342529231
 C       -10.0803164503       -2.7445060972      -19.1665128695
 C       -14.3546733465        0.9973872082      -23.0913823776
 C       -12.7876905664       -0.7913615790      -23.9927244079
 C        -7.5186564127        4.3744302264      -23.2750570062
 C        -6.2906467422        2.7844149291      -21.6842649062
 H        -9.7277754170        5.2261734534      -21.9919380310
 H        -8.4104669253        6.0999832036      -21.1886021274
 H        -9.9352621164        5.3860222051      -20.3084922511
 H        -8.6304436276        2.1874136731      -24.5349914251
 H        -9.9202944782        2.9962327796      -23.5137883811
 H       -10.0105233813        0.1083315463      -23.3921596696
 H       -10.5281475325        0.7890273934      -24.9788406596
 H       -13.9805330536        0.7931205356      -20.0375166557
 H       -12.4876876326        1.3420936478      -20.1724452361
 H       -12.8445529515       -1.3674056390      -18.8922217547
 H       -12.9079164469        0.1434853361      -18.0513642234
 H        -8.8186563373       -0.8904444691      -15.5804742441
 H        -8.6245081486        0.6674404461      -16.4495546259
 H        -6.4111558146       -1.3094125443      -16.8890700550
 H        -6.5379244698       -0.6267372455      -15.1908832223
 H        -4.0090580699        3.3978277653      -14.1395455708
 H        -2.6949898493        2.3688909435      -14.5559106956
 H        -4.4665492827        1.9534668761      -12.0938140609
 H        -3.0061944346        3.0351977309      -12.1208294392
 H        -2.1050126911       -1.7551578030      -11.6799755103
 H        -2.8708967671       -1.8089891261      -10.1981224164
 H         0.1234544882       -2.5756701440      -10.3235598779
 H        -0.9379541332       -3.8600539965      -11.0062272030
 H         2.8282863093       -5.3493324135       -9.2963621203
 H         2.1610798258       -6.1778949867       -7.8810627818
 H         3.8982245482       -3.6337945496       -7.8071136041
 H         4.5766209277       -5.3306523893       -7.8790066027
 H         3.8270116655       -2.3499075707       -3.1486248886
 H         2.4358541027       -2.5095190822       -4.1846405056
 H         3.6542426044        0.3382719201       -4.0916653967
 H         2.1145494824       -0.4286054763       -3.3261051034
 H         2.3864770532        3.8499093316       -6.2369556975
 H         2.3637165369        3.1494897418       -4.6915529018
 H        -0.2736357631        4.0782848075       -6.1543507905
 H         0.4389984072        4.9626152050       -4.9907956845
 H        -1.9055711830        0.6975867123       -4.0623320905
 H        -1.7352358630        0.6341731879       -5.8753309300
 H        -4.3358550867        0.5828297742       -5.8544635719
 H        -4.1559501837       -0.0280428270       -4.2404112033
 H        -2.0170963060       -2.6402195406       -3.1933140639
 H        -1.7291167286       -3.6167188462       -4.5032505059
 H        -2.1991469155       -5.6862503378       -3.4841347652
 H        -2.9896109130       -4.8895922146       -2.1344679471
 H        -1.9167757520       -6.3725359892        0.9149406347
 H        -0.3152659960       -6.9585874288        0.8798019303
 H        -2.7381176662       -8.7864671242        0.5210900318
 H        -1.7637385959       -8.7274553672        2.0212782945
 H        -3.1843341655      -12.4664162715        0.2911430404
 H        -1.9912722622      -13.5456788401        1.0247267997
 H        -2.2614929597      -13.6805915387       -0.6588337128
 H         0.7186303220      -12.4793929469        1.6757136435
 H         1.3387731859      -10.7725385326        1.8264222778
 H         1.2489135567      -11.6291166933        0.1858187742
 H        -1.2946540538      -12.0659729693        2.8576922979
 H        -2.5641416108      -11.0116283574        2.3467678325
 H        -1.1518293110      -10.3309908717        3.1110214560
 H         0.4254574546       -7.9072814580       -2.5687877640
 H         0.9460975550       -6.1891434841       -3.2210997468
 H        -0.6017625374       -6.8390848212       -3.6465227379
 H         1.6333450165       -5.2786141455       -1.2707052156
 H         1.4207910165       -6.7599722533       -0.3882870148
 H         0.6191349648       -5.1645815142        0.1023399370
 H        -6.0101282771       -1.5909292366       -4.1863807311
 H        -6.5643885642       -2.7444231011       -5.5135590111
 H        -5.8908944170       -1.1773500401       -5.9003747306
 H        -4.9248688616       -4.4368467681       -6.7587384933
 H        -3.2176147818       -3.7985527780       -6.6795897580
 H        -4.3893646448       -2.6841367009       -7.3898168574
 H        -2.9237890789        3.0549199456       -1.9953765913
 H        -1.2191214803        3.4857277996       -1.9302331789
 H        -1.6260854319        1.8713232684       -2.4219294622
 H        -2.3514900831        5.2376470704       -5.1814698775
 H        -1.3791748824        5.3934707120       -3.5347744215
 H        -3.0987699772        5.2780049694       -3.5255777377
 H         3.9966772582        2.3033242909       -6.9813053418
 H         4.8373746704        0.8620875799       -6.4517066738
 H         4.0177523571        1.9673973112       -5.2794876895
 H         1.4905637179        0.0188803906       -8.1311427169
 H         3.1112039995       -0.6199565257       -7.9483815306
 H         2.9537045164        1.0764226646       -8.3990511434
 H         5.0908837566       -5.7884244574       -4.0850632406
 H         4.2182491088       -4.6823755114       -3.1099517439
 H         5.9560048617       -4.4952488599       -3.5224686276
 H         6.5338972391       -5.1547945447       -5.8993131467
 H         6.7896777377       -3.3322872257       -5.6890049864
 H         6.0807781751       -3.9998311095       -7.1044558679
 H        -0.2733005887       -6.2052201783       -6.7081287342
 H        -1.7031715928       -5.3380608402       -7.0209977424
 H        -0.4056814372       -4.4282368245       -6.3099102514
 H         0.4295315228       -6.7315896199       -9.1354424364
 H        -0.0769934800       -5.5123496140      -10.3557225889
 H        -1.2420542066       -6.3696905578       -9.3407937066
 H        -1.5749016076        3.0699822321      -10.6510483389
 H        -0.6249614324        1.9995882999       -9.6111248040
 H        -2.2924584883        2.6876307439       -9.1649301661
 H        -3.4327804334        0.5348121141       -8.7824198596
 H        -4.1229213002       -0.1607965052      -10.0948634574
 H        -4.2998850600        1.5119509375       -9.9187149379
 H        -2.7490323810        0.2921418576      -15.8043603371
 H        -3.4946003416       -0.0178701725      -17.2835063704
 H        -4.0459210042       -0.7920585869      -15.6931071707
 H        -3.7391651807        3.1611967676      -16.4010040502
 H        -4.9589651808        3.0235535823      -17.5243940470
 H        -3.4830710317        2.1958738634      -17.7448116646
 H       -10.4217719999       -2.0913450563      -15.9201341555
 H       -11.3771776177       -2.9388731087      -17.0166261548
 H       -11.8404489286       -1.2180716340      -16.5757407271
 H        -9.3560649401       -3.5491387463      -18.8478268590
 H        -9.7151871935       -2.3271592439      -20.1555714527
 H       -11.0234963826       -3.1298669146      -19.4690668601
 H       -14.2393839087        1.9767840348      -23.6426651321
 H       -14.7806893313        1.2408453067      -22.1607810160
 H       -15.0534794677        0.4615934796      -23.7842572693
 H       -12.9234323992       -0.3780140432      -24.9810828103
 H       -13.6413219497       -1.4864966263      -24.0054700470
 H       -11.8724629992       -1.2864833020      -23.8033361792
 H        -7.2460158489        4.0551081475      -24.2387438549
 H        -6.7754150761        5.1288907828      -23.0102461543
 H        -8.4304940543        4.9384588863      -23.1856785185
 H        -6.5210037309        2.3681832499      -20.7086436802
 H        -5.5773698274        3.6636942397      -21.5432895076
 H        -5.8403361417        2.0021984495      -22.2557489552
 Na       -8.3908649187        1.4517785314      -19.2063896397
 Na       -0.3600620193       -1.3170806636       -7.2703972072
