232

 C        -9.3401592545        5.3961054677      -21.0511783741
 C        -8.3724141367        4.1869152403      -20.8799053437
 O        -8.2616267427        3.8366469305      -19.7428234787
 C        -7.7652362633        3.3738616877      -22.1291134915
 C        -8.7845604968        2.2732622571      -22.3754652428
 O        -8.8954947991        1.3151984720      -21.5904293454
 C        -9.5204328050        2.4000173245      -23.7168072358
 C       -10.6682382506        1.2611240422      -23.8510284898
 C       -11.9850117806        1.3716645357      -22.9997202650
 O       -12.2333682768        2.4044164424      -22.3410553125
 C       -12.9444285000        0.1386143356      -23.0956527629
 C       -12.7316828884       -0.5562353518      -21.6075852723
 O       -12.2047413109       -1.6600182537      -21.4022963121
 C       -13.0453235672        0.2608269430      -20.3593107773
 C       -12.6785124193       -0.4752502592      -18.9626914970
 C       -11.2531478246       -0.2365044673      -18.6052330220
 O       -10.7748364496        0.8819924774      -18.8205465163
 C       -10.3935792442       -1.3505967201      -18.0815445697
 C        -8.8451689079       -0.9341013197      -17.9049636343
 O        -8.2122493759       -0.8835042353      -18.9148317863
 C        -8.3499729969       -0.5612803572      -16.4990709533
 C        -6.8190054274       -0.3404534042      -16.3452576940
 C        -6.1340411459        0.9388035148      -16.8219694531
 O        -6.6849668061        1.6972753064      -17.6357506808
 C        -4.7397316948        1.2868408084      -16.2798214783
 C        -4.8886574299        1.5767133773      -14.6383903356
 O        -5.8640853817        1.2444634603      -14.0150111161
 C        -3.7693096468        2.2639770329      -13.9005257897
 C        -3.7377793480        2.0144577586      -12.3791415694
 C        -2.6625739217        0.9885008056      -12.0200717703
 O        -2.0954168665        0.3080745339      -12.8230231987
 C        -2.2429085617        0.9443467972      -10.5374557424
 C        -1.3623053263       -0.3551907925      -10.1450054309
 O        -0.5245353194       -0.0713868806       -9.2940831675
 C        -1.4739720652       -1.8037556301      -10.7522696605
 C        -0.4434607931       -2.8173761323      -10.3976781542
 C        -0.7610292010       -3.4560003928       -8.9721913765
 O        -1.5703984088       -2.8813938227       -8.2843962864
 C         0.0409513477       -4.6137862876       -8.4977751105
 C         1.5768763801       -4.1903402722       -8.2276685806
 O         1.7299726729       -3.0820688902       -7.7849855581
 C         2.5951139944       -5.2439186824       -8.1994068168
 C         3.9383216991       -4.7876494541       -7.4868825164
 C         3.7711500220       -4.6657158293       -5.9978574486
 O         2.7130468972       -4.9887451018       -5.4629526003
 C         4.9966668764       -3.9858582781       -5.1801675004
 C         4.3578072466       -2.5708249634       -5.1310878689
 O         4.5536510739       -1.7490225016       -6.0075582720
 C         3.4929793117       -2.1405264001       -3.9236124027
 C         3.1710838347       -0.6946624700       -4.2267851499
 C         2.3033866961       -0.4680022780       -5.4952666750
 O         1.3655193043       -1.2605700343       -5.6891521103
 C         2.6718572922        0.6784416072       -6.4574282697
 C         1.3758480874        1.6227424907       -6.3830477993
 O         0.3562423321        1.2790848219       -6.9494259269
 C         1.4257560615        3.1189407405       -5.9798242882
 C         0.2948836546        3.8095202806       -5.3296575400
 C        -0.2335278504        3.1158883518       -4.1382095476
 O         0.3403001277        2.1692104211       -3.6742608724
 C        -1.7711265013        3.3825698072       -3.8909017749
 C        -2.5821948746        2.5577748046       -4.9802335621
 O        -3.5004475880        3.0408045566       -5.6115482366
 C        -2.2708599455        1.0613245344       -5.0286122392
 C        -3.5357865764        0.2494323166       -5.1077262723
 C        -3.1958517384       -1.1805280300       -5.6633584866
 O        -2.1581722647       -1.5458470775       -6.1651272224
 C        -4.4302883356       -2.2212398499       -5.4470644356
 C        -4.1497151642       -3.3423986098       -4.1800613313
 O        -5.0294984613       -3.8986563941       -3.5812918613
 C        -2.7078539618       -3.5403218728       -3.6935751032
 C        -2.4164217470       -4.8117888296       -2.7878799642
 C        -1.1722622147       -4.7259046516       -1.9199220175
 O        -0.7719268684       -3.6234930697       -1.5638203939
 C        -0.4320923801       -6.0627818263       -1.5822080724
 C        -1.5547036373       -6.9678992096       -0.9969388429
 O        -2.4953583414       -7.3603475257       -1.6416700770
 C        -1.5730271748       -7.2553322456        0.5051242712
 C        -1.7170853470       -8.7781343634        0.7821291513
 C        -0.3943402708       -9.5418216945        0.6108470214
 O         0.5542702475       -8.8892217443        0.1787110964
 C        -0.3747847948      -11.1478510761        0.8914724283
 C        -1.0456498202      -12.0099966851       -0.3029210311
 O        -1.0863915274      -11.7063726408       -1.4826365498
 C        -1.8552510703      -13.2117828079        0.1956365331
 C         1.1188871403      -11.4694261980        0.9831943945
 C        -1.0126144267      -11.5132628683        2.3111847216
 C         0.0104564649       -6.8243492655       -2.9171335543
 C         0.9773190421       -5.7337042913       -0.7637989315
 C        -5.7071783261       -1.5648259755       -5.1580651253
 C        -4.5188820580       -3.0873489420       -6.7052902774
 C        -2.2556363866        2.8245147310       -2.4942608404
 C        -2.3026746952        4.8060999670       -3.9214313907
 C         4.0061798054        1.3073719671       -6.0645102321
 C         2.9038563343        0.1399158399       -7.9087301488
 C         4.9945847114       -4.5941321281       -3.6788947883
 C         6.4201141438       -3.9821195516       -5.7978615974
 C        -0.6210837287       -5.0526241331       -7.1067127645
 C        -0.0411306977       -5.6975541513       -9.5277414087
 C        -1.4910817000        2.2151869459       -9.9371370691
 C        -3.5684190229        0.6955444001       -9.8170075878
 C        -3.9253143128       -0.0012452199      -16.4451073272
 C        -4.0278040534        2.4313657560      -17.0559387390
 C       -11.0471139359       -1.9992239071      -16.8563746795
 C       -10.3605853465       -2.3977757214      -19.3026910204
 C       -14.4469978509        0.6267738677      -23.1925586194
 C       -12.6299832370       -0.9371492163      -24.1251722771
 C        -7.5717603945        4.3476809783      -23.3208197721
 C        -6.5060694419        2.6455286258      -21.6819016931
 H       -10.0875210530        5.3131999568      -21.8159086838
 H        -8.6243877707        6.1332557741      -21.2890540530
 H        -9.9426007983        5.6132514193      -20.2391865328
 H        -8.8034704130        2.2011494064      -24.5353927447
 H       -10.0695871553        3.3153745909      -23.6598868184
 H       -10.2776269857        0.2957589127      -23.4189886277
 H       -10.7880183302        1.2814670208      -24.9350942519
 H       -14.1003001445        0.6267088626      -20.3768157004
 H       -12.5271682145        1.2683514480      -20.3155656415
 H       -13.0949094116       -1.4865060847      -18.9265826860
 H       -13.2018524967        0.1175632787      -18.2229626593
 H        -8.6073799735       -1.3405535856      -15.7687361310
 H        -8.7816857062        0.4750357675      -16.2906831340
 H        -6.3166315453       -1.0839235651      -16.9908419599
 H        -6.5639940043       -0.4266890117      -15.2962477015
 H        -3.6926742609        3.3143589219      -14.1955436786
 H        -2.8110865778        1.8563221348      -14.1980387329
 H        -4.6815741471        1.7177929903      -11.9351822992
 H        -3.2945759819        2.9698781945      -11.9498478615
 H        -1.4464343249       -1.5740933989      -11.8152660288
 H        -2.5434007766       -2.1813361483      -10.5914854046
 H         0.5473586148       -2.5166446575      -10.2616030948
 H        -0.4301881455       -3.5723746752      -11.1965035917
 H         2.7657877484       -5.7123912336       -9.0924457610
 H         2.2508981064       -6.0995966376       -7.5983393167
 H         4.1830144587       -3.8325647965       -7.8543299853
 H         4.8300470199       -5.4387074532       -7.6579577239
 H         4.0699448265       -2.2759121517       -3.0076944816
 H         2.7005725155       -2.9115987283       -4.0088767667
 H         4.0755966835       -0.1201106787       -4.2574743487
 H         2.5952870324       -0.4109930034       -3.3267088561
 H         1.6553269534        3.5341032812       -6.9759520441
 H         2.4953976519        3.2321743518       -5.6468863628
 H        -0.4790727488        4.0311344309       -6.0567197624
 H         0.7043701524        4.8665152353       -5.1534196053
 H        -1.6275459603        0.7391057010       -4.1827118544
 H        -1.6048488836        0.8954056292       -5.9577270975
 H        -4.2799775602        0.7048378424       -5.7935120200
 H        -4.0943348586        0.2187043337       -4.2181246017
 H        -2.4338159574       -2.6212513447       -3.1821497801
 H        -2.0126299082       -3.4890097496       -4.5469605769
 H        -2.3025214403       -5.6740791820       -3.4641942989
 H        -3.3952547761       -4.8800366351       -2.2688000150
 H        -2.3391934419       -6.6824404144        1.0467894492
 H        -0.6123926355       -7.0239209780        0.9665529082
 H        -2.3754792210       -9.2387471086        0.1282631815
 H        -2.0893614638       -8.9399658290        1.7872348551
 H        -2.7528711677      -12.8466857981        0.7091250592
 H        -1.2318725434      -13.9442973348        0.7499488076
 H        -2.1875760341      -13.7383335412       -0.7139747598
 H         1.2354204800      -12.3109389741        1.5803450938
 H         1.6786641320      -10.6236880577        1.3877448747
 H         1.4587266491      -11.7108456495       -0.0048410708
 H        -0.8401685681      -12.5741027378        2.4079180811
 H        -2.0523569003      -11.2924846669        2.5390074501
 H        -0.6095631242      -11.0514592287        3.1629516115
 H         0.4471600534       -7.6502582633       -2.4884633408
 H         0.5594868871       -6.1532632045       -3.6010472385
 H        -0.9053204989       -6.9878261618       -3.5114969650
 H         1.6854298906       -5.1758368954       -1.3738283235
 H         1.4739157068       -6.6975378343       -0.5005563471
 H         0.6981416264       -5.3053133051        0.2217523116
 H        -5.5602609471       -0.6958878577       -4.5005865731
 H        -6.4463389495       -2.3296101898       -4.7833036312
 H        -6.0940128408       -1.1729975811       -6.0328174551
 H        -5.2187825957       -3.8693463845       -6.4467848448
 H        -3.5378718973       -3.5324110121       -6.8430015214
 H        -4.8923691714       -2.6281897713       -7.5430334067
 H        -3.3138988230        2.5882412873       -2.6001391370
 H        -2.1847829446        3.5313931233       -1.6666686000
 H        -1.8189078057        1.8858658566       -2.2689201449
 H        -2.0492442945        5.4290134200       -4.8631175003
 H        -2.1215441021        5.4526185383       -3.1240178943
 H        -3.3586769853        4.5683543819       -4.0179739392
 H         4.4407354686        1.9387011192       -6.8276393463
 H         4.7559643782        0.4605259836       -6.0340300846
 H         3.9247547739        1.8779401230       -5.1804211833
 H         1.8698860632        0.0820484701       -8.4003336535
 H         3.3522506455       -0.8542311261       -7.7983785354
 H         3.4911550058        0.7804693798       -8.5674683119
 H         5.8294761866       -5.2615072934       -3.5124943143
 H         4.1351082749       -5.1931664630       -3.3021780845
 H         5.1323292161       -3.8649841845       -2.9369226408
 H         6.5798997083       -4.8849019544       -6.5464619363
 H         7.1708009423       -3.8831256544       -5.0593047065
 H         6.4440878647       -3.1832359543       -6.4805513124
 H         0.1058541265       -5.7370263948       -6.6246586752
 H        -1.4813740430       -5.7088396215       -7.2175757535
 H        -0.8092554645       -4.0966228690       -6.5879701670
 H         0.4368066524       -6.5898222082       -9.0704241697
 H         0.6454155699       -5.3705012181      -10.3769104604
 H        -1.0907420873       -5.7450537926       -9.8489501130
 H        -1.5802313310        3.0561312992      -10.5439953552
 H        -0.4328536612        1.9306291289       -9.8916521313
 H        -1.8993709062        2.6013282285       -8.9675587424
 H        -3.4959835424        0.4091498068       -8.7580234402
 H        -4.1734079907       -0.0508435472      -10.2040369555
 H        -4.2521736272        1.5565226734       -9.8620516451
 H        -2.8809857585        0.1002590992      -16.1907986297
 H        -3.9174876332       -0.4261210262      -17.4597519969
 H        -4.2520731668       -0.7335942717      -15.7277284335
 H        -3.3600843880        3.1009001952      -16.4410038919
 H        -4.7505388949        3.1617607724      -17.5063207120
 H        -3.5126402851        1.9875470328      -17.9180071851
 H       -10.2726465271       -2.3275059235      -16.2323446149
 H       -11.6816435176       -2.8281890583      -17.1218357118
 H       -11.7966106320       -1.3049623490      -16.3176051027
 H        -9.8408252594       -3.3110169998      -18.8755922273
 H        -9.7948043458       -2.0601219760      -20.2163977284
 H       -11.3724021364       -2.5981230762      -19.6286741585
 H       -14.5717891358        1.4346923737      -23.9329387151
 H       -14.6712544980        1.0747922865      -22.2577473540
 H       -15.2383362803       -0.0580018927      -23.4429226566
 H       -12.7076050658       -0.4394037209      -25.0870695595
 H       -13.4879005953       -1.7163079044      -24.1037128374
 H       -11.7203812341       -1.4580216818      -23.9407197413
 H        -6.9221471370        3.8694341186      -24.0870981610
 H        -6.8440781347        5.1839430967      -23.0394455815
 H        -8.4766523621        4.7456497350      -23.7557244756
 H        -6.7288257494        1.6791871502      -21.2608218236
 H        -6.0313122183        3.2641709834      -20.8807825772
 H        -5.8812192857        2.4646654551      -22.5085814339
 Na       -8.2151565811        1.4123446160      -19.4294774903
 Na       -0.1470251785       -1.0380339867       -7.1956910514
