232

 C        -9.2755759176        5.4511446599      -21.2499905111
 C        -8.4618403803        4.2005866935      -20.9108671955
 O        -8.2981318254        3.7247196718      -19.7967917620
 C        -7.7938311144        3.4462508408      -22.0364024959
 C        -8.8999879685        2.2912235650      -22.3710734191
 O        -9.0076803029        1.3405929562      -21.6645349206
 C        -9.7971892456        2.4511251553      -23.6134503276
 C       -10.7830436562        1.2854107157      -23.9009929870
 C       -12.0167474437        1.3003147298      -22.9956626625
 O       -12.1735633831        2.2606742109      -22.2760839538
 C       -13.0574013374        0.0388396381      -22.9930031360
 C       -12.8062569539       -0.6831082115      -21.5622971772
 O       -12.1423330040       -1.6522939322      -21.5802641297
 C       -13.2365481242        0.1739800646      -20.3056030922
 C       -12.7570161662       -0.3131055709      -18.8966994879
 C       -11.2681500730       -0.0645737069      -18.6225904752
 O       -10.6561184092        1.0035114061      -18.8306102524
 C       -10.3856806999       -1.4812857740      -18.0630276917
 C        -8.9408563274       -0.9138857459      -17.9234199731
 O        -8.1801281868       -0.8376112318      -18.8534844992
 C        -8.4469059086       -0.5004495813      -16.5301108303
 C        -6.8603366104       -0.4048361245      -16.4722341518
 C        -6.2328373671        0.9797780209      -16.8457391311
 O        -6.6572276408        1.7772632626      -17.6755845478
 C        -4.7949064859        1.2378926238      -16.2150594494
 C        -4.9945968488        1.6293414110      -14.7376875116
 O        -6.0395579446        1.3038246753      -14.1549921527
 C        -3.7540550656        2.2467972129      -14.0010994572
 C        -3.7381833799        2.0151099447      -12.4804031054
 C        -2.6337604540        1.0010588083      -12.0045588363
 O        -2.2136562988        0.2199101180      -12.8245115661
 C        -2.2955629117        0.8651816862      -10.4683007639
 C        -1.2914494894       -0.3764121763      -10.1696910341
 O        -0.5004706271       -0.2474356596       -9.2973485845
 C        -1.4030124120       -1.6911310108      -10.9123759176
 C        -0.2976910631       -2.6497201090      -10.4215359391
 C        -0.5552567061       -3.1745728334       -8.9908530687
 O        -1.4857760204       -2.7498335381       -8.3570090758
 C         0.1507299386       -4.5942900721       -8.4435735608
 C         1.5836351525       -4.2276442799       -7.9580840386
 O         1.8766180897       -3.0213683953       -7.8066370389
 C         2.7233758586       -5.2561644947       -8.1111629366
 C         4.0783104892       -4.7641680276       -7.5239004055
 C         3.8739989844       -4.6745990546       -5.9690946938
 O         2.8635310374       -5.0380476897       -5.4390937785
 C         4.9974811542       -3.9615200544       -5.1137980773
 C         4.5125935250       -2.5179744553       -5.0595379172
 O         4.7045060862       -1.7732943892       -5.9873118250
 C         3.4506218256       -2.0520697825       -3.8577845742
 C         3.0665757639       -0.5966650871       -4.0742704078
 C         2.4209008779       -0.5433450362       -5.3772722654
 O         1.4618246655       -1.3249811701       -5.5667268507
 C         2.6783793116        0.5958333367       -6.4811335807
 C         1.4204986015        1.5414683379       -6.5001236497
 O         0.3411740604        1.0675079429       -6.7943175026
 C         1.5797745290        3.0456666324       -6.0708062522
 C         0.2431413617        3.6406472409       -5.5133972008
 C        -0.2811064301        3.0067115847       -4.2306904135
 O         0.2569530485        2.1564860806       -3.5484217390
 C        -1.9058226055        3.3396486450       -3.8402640035
 C        -2.6330428503        2.5692359594       -4.9261112059
 O        -3.4180996322        3.0892552422       -5.6713165584
 C        -2.2485840810        1.0870014282       -5.0812604329
 C        -3.4598237846        0.1659492952       -5.0997023931
 C        -3.2501949776       -1.2210055834       -5.5304378006
 O        -2.2724310946       -1.5034435687       -6.2242397682
 C        -4.3878851229       -2.2689151467       -5.3310200185
 C        -4.0851558631       -3.2903987217       -4.1246849786
 O        -5.0991335235       -3.7005573650       -3.6103854966
 C        -2.7112307471       -3.5265524280       -3.5875322033
 C        -2.5441250720       -4.7917030356       -2.8641196172
 C        -1.2422320743       -4.6922052089       -2.0095405124
 O        -0.8982321356       -3.5909565365       -1.5588422362
 C        -0.5871686384       -5.9974944205       -1.6200661310
 C        -1.6132970939       -7.0126829950       -0.9748144445
 O        -2.5294083934       -7.3476919026       -1.7386533059
 C        -1.4442688638       -7.4136941254        0.5384224986
 C        -1.7456789845       -8.8733511941        0.7630939485
 C        -0.3441416515       -9.6344911306        0.6499529964
 O         0.6823930875       -8.9431575693        0.4903832953
 C        -0.2192701219      -11.1583179722        0.8623420287
 C        -1.1198182088      -11.9448921887       -0.2622534770
 O        -1.0850056743      -11.6267576836       -1.4130014232
 C        -1.7373232987      -13.2980014719        0.1979997058
 C         1.3192821464      -11.4632583065        0.8246434110
 C        -0.8394659000      -11.5395285716        2.1310944053
 C        -0.1229195813       -6.7735492355       -2.9110415234
 C         0.6797322298       -5.7105561123       -0.7861373264
 C        -5.7203100309       -1.4768689952       -5.1082580883
 C        -4.5731720729       -2.9929424881       -6.7535695373
 C        -2.1398805247        2.7340583701       -2.4682213305
 C        -2.1651145017        4.8938111271       -3.9477746093
 C         3.9735642959        1.4639478031       -6.0053037002
 C         2.9233892233        0.1695311167       -7.9223363238
 C         4.9739884085       -4.7485552037       -3.7759101000
 C         6.3862939463       -4.0855197101       -5.7672469178
 C        -0.7364138535       -5.0796770284       -7.2333326076
 C         0.0862928432       -5.7195314361       -9.5918882425
 C        -1.5730303058        2.1162773490       -9.9571518189
 C        -3.5886830352        0.6962532044       -9.6051303157
 C        -3.8875880438       -0.0340072036      -16.4540962961
 C        -4.1268148932        2.3295140270      -17.0849741737
 C       -11.0103378603       -2.0172196751      -16.8108851532
 C       -10.3391750263       -2.4000904107      -19.2678892750
 C       -14.4998426752        0.5158266164      -23.2870650511
 C       -12.6819088628       -0.9387860365      -24.1682436759
 C        -7.5798753766        4.4901593063      -23.0962603435
 C        -6.3539191696        2.7565219701      -21.6140070971
 H       -10.0002235799        5.1331857189      -21.9157158912
 H        -8.5807386351        6.1032074768      -21.7021440659
 H        -9.9373061276        5.9684162009      -20.4998894564
 H        -9.1571042502        2.3288199661      -24.4144383582
 H       -10.3616569791        3.3549269761      -23.5547746593
 H       -10.2614197200        0.3370970749      -23.7941590190
 H       -10.9576494839        1.5483264385      -24.9311959994
 H       -14.2993222210        0.5606240310      -20.3706869059
 H       -12.7287496271        1.1501519021      -20.4314393201
 H       -12.9338348164       -1.3640161433      -18.8889107660
 H       -13.3431703658        0.1575063869      -18.1070107555
 H        -8.6710070394       -1.4173448244      -15.8420666803
 H        -8.8570379323        0.4329160738      -16.2398261255
 H        -6.4654097929       -1.1278138696      -17.2093615580
 H        -6.5303266054       -0.5428326071      -15.3864391349
 H        -3.7853519242        3.2795344237      -14.2395979155
 H        -2.7770686569        1.8915516236      -14.4058540073
 H        -4.5994863461        1.3048609733      -12.3284798743
 H        -3.8502634859        2.9120982553      -11.8992450294
 H        -1.3724003117       -1.5244314486      -11.9820384216
 H        -2.4646148212       -2.0308428103      -10.6970198674
 H         0.7032446297       -2.3430739904      -10.3859268851
 H        -0.2510796066       -3.5472118905      -11.0668386048
 H         2.7917792928       -5.4296091827       -9.1516006449
 H         2.5572260981       -6.3781074389       -7.7430707601
 H         4.0954151412       -3.7391302130       -7.9679853891
 H         5.0167282595       -5.2229107626       -7.7954417297
 H         3.8642980883       -2.2582854499       -2.8894611288
 H         2.6980260219       -2.7645662875       -4.1075453729
 H         3.9122366898        0.1315238759       -3.9412613787
 H         2.2901231583       -0.3492746830       -3.3353998327
 H         2.0910195479        3.4835565817       -6.9079321643
 H         2.5199221193        3.0007046281       -5.4897726547
 H        -0.5433218687        3.6076438955       -6.3005423527
 H         0.3885948144        4.6887269662       -5.3819451041
 H        -1.6175381450        0.7609020271       -4.2173760060
 H        -1.5148526700        1.0709461197       -5.9326891325
 H        -4.2959376593        0.5084534892       -5.7715796756
 H        -3.9606705018        0.2368200712       -4.1497892984
 H        -2.3588959078       -2.6730328645       -2.9444984691
 H        -2.0405161398       -3.4486246096       -4.4519868337
 H        -2.6319978504       -5.6668828019       -3.5433868238
 H        -3.4774043359       -4.7182988235       -2.2536492200
 H        -2.2419618048       -6.9387301292        1.0765802962
 H        -0.5393972488       -7.1699771083        1.0648854662
 H        -2.5715301531       -9.1921635334        0.1790026586
 H        -2.0065076248       -8.9291723572        1.7972344412
 H        -2.5283170189      -13.1709292146        0.9762217063
 H        -0.8966020702      -13.8842687698        0.4872325489
 H        -2.1703943117      -13.8350362544       -0.6660476978
 H         1.5050354397      -12.5145545367        1.0294592022
 H         1.7211911117      -10.8685072009        1.6267396369
 H         1.7540436485      -11.1659631973       -0.1159462039
 H        -0.6989270288      -12.6160084438        2.3180307986
 H        -1.8785756295      -11.2908523329        2.1724384935
 H        -0.5832542481      -11.0293311712        3.0436247608
 H         0.6628674837       -7.4734356835       -2.5794680784
 H         0.1290516506       -5.9419947959       -3.5973285688
 H        -0.9732944603       -7.1629150843       -3.3754987503
 H         1.5767581580       -5.5186517087       -1.3693979646
 H         0.8947573609       -6.6941084430       -0.2125851306
 H         0.4200839453       -4.9966927803        0.0260077871
 H        -5.5522507046       -0.6765418082       -4.4017479347
 H        -6.4180074671       -2.1972535454       -4.7263274328
 H        -6.1433712854       -1.0268585332       -6.0007723588
 H        -5.4475729809       -3.6512746787       -6.7490922590
 H        -3.6801834342       -3.4379332366       -7.1337070579
 H        -4.9200730488       -2.1980692458       -7.4408863344
 H        -3.1785289721        2.4139682062       -2.4026074596
 H        -1.9729191044        3.4227728540       -1.6659375650
 H        -1.6287235828        1.8150871965       -2.3635402255
 H        -1.6084449612        5.2705926389       -4.8670989865
 H        -1.7358838093        5.6102826140       -3.1902864552
 H        -3.2056553518        5.0927546631       -4.1282748250
 H         4.2018425859        2.2422402025       -6.6373886003
 H         4.8276849480        0.8116064817       -6.0780672526
 H         3.8486632199        1.9513184157       -5.0329053499
 H         1.9903417382       -0.0974265609       -8.4463840361
 H         3.7426593850       -0.5883260517       -7.9938723859
 H         3.1927758618        1.1093070676       -8.4957535087
 H         5.4149467049       -5.7008295414       -3.9484539644
 H         4.0670596289       -4.9330658979       -3.2205339414
 H         5.5947650092       -4.2588418856       -3.0386471948
 H         6.4720687053       -4.9508317851       -6.3407390368
 H         7.2162983320       -4.0090619879       -5.0112062186
 H         6.4430202021       -3.3233166031       -6.5191451264
 H        -0.1460338295       -5.8330405052       -6.6283895699
 H        -1.5417765009       -5.6786805431       -7.5846323937
 H        -1.0907349338       -4.2084246337       -6.7494408154
 H         0.4960092225       -6.7216866386       -9.2292331136
 H         0.7107876326       -5.4169728324      -10.3402145361
 H        -0.9543048085       -5.6221306089       -9.9385004995
 H        -1.9605301375        2.9726977835      -10.4845364024
 H        -0.5391017045        1.9984527018      -10.2827410218
 H        -1.6626738584        2.3973157299       -8.8830200090
 H        -3.4206969575        0.3913602458       -8.6271884640
 H        -4.3508291243        0.0463394063       -9.9639652692
 H        -4.1220016916        1.6069473434       -9.5595211281
 H        -2.8646026594        0.0970300238      -16.2924562983
 H        -3.9895911131       -0.1911145629      -17.5673267106
 H        -4.1204713895       -1.0159846632      -15.9248201176
 H        -3.2766984722        2.6280661464      -16.5780920972
 H        -4.7121142997        3.2898950634      -17.1039268961
 H        -3.9184744522        2.0351222885      -18.0953249295
 H       -10.3617011300       -2.8445528052      -16.3953414059
 H       -12.0195713510       -2.3038129211      -17.0229142446
 H       -11.2101989621       -1.2422159318      -16.0834125755
 H        -9.7546044397       -3.3353602084      -19.0866259009
 H        -9.7581038884       -1.7872926869      -20.1300587800
 H       -11.3453759996       -2.5671959119      -19.6898019589
 H       -14.6016436623        0.7065460431      -24.3657536923
 H       -14.8630096612        1.3560359272      -22.7843227579
 H       -15.2667855479       -0.2830292530      -23.0866284597
 H       -12.4957994911       -0.2612580668      -25.0505497481
 H       -13.3956081586       -1.6755529350      -24.3783860745
 H       -11.7731496807       -1.4780174115      -23.8563239334
 H        -7.1591555696        4.0115967249      -23.9839321079
 H        -6.7499795989        5.1157089798      -22.8312870650
 H        -8.5122379994        5.0727625155      -23.4806200071
 H        -6.3896493537        1.7584095811      -21.2071578972
 H        -5.8755966644        3.4377208097      -20.8834842657
 H        -5.8047430796        2.7155006342      -22.5401276301
 Na       -8.2878719441        1.4550081347      -19.4583238633
 Na       -0.0233076701       -1.0541547767       -7.1607809983
