232

 C       -21.6525049649       -6.2812087407       -5.6373078573
 C       -20.7905415866       -6.0290653873       -4.3628879556
 O       -19.6223267824       -6.3680693905       -4.3363350423
 C       -21.5969755454       -5.2192219294       -3.2338774910
 C       -20.5468970688       -4.5830433674       -2.2383133523
 O       -19.9586161788       -5.3554542826       -1.4477315856
 C       -20.2920724002       -3.0055503228       -1.9797544532
 C       -18.9144642110       -2.8317714224       -1.3541562789
 C       -17.8474587304       -3.4227070782       -2.3288856866
 O       -18.1443198215       -3.8913414587       -3.4107300464
 C       -16.3027156646       -3.4786676423       -1.8706144137
 C       -16.0763044672       -4.9022225836       -1.3073440452
 O       -17.0111209113       -5.5744539220       -0.8741659285
 C       -14.6914266494       -5.5168717355       -1.1401068634
 C       -14.7788489351       -6.9770720536       -0.7471273585
 C       -15.1052433129       -7.8704001810       -1.9849927491
 O       -16.0834537151       -7.6891867689       -2.7011939887
 C       -14.0904499932       -8.9252296812       -2.3982013538
 C       -12.6579041329       -8.3870707346       -2.5653638432
 O       -12.3576517116       -7.2378643417       -2.3791049795
 C       -11.5920000756       -9.4615954049       -2.9085246372
 C       -10.3495081664       -8.8513696421       -3.5820554382
 C        -9.1523246781       -9.6461666957       -3.0771528291
 O        -9.2633747939      -10.2566754758       -2.0166440714
 C        -7.8635739564       -9.7542074686       -3.8660148040
 C        -7.6518909994       -8.5224495349       -4.8798214946
 O        -8.0289486704       -7.4037855564       -4.5401145204
 C        -6.6929814230       -8.5652592761       -6.1449718010
 C        -6.2391834251       -7.1665360882       -6.4116075531
 C        -7.2811834381       -6.2378466314       -7.2237487929
 O        -8.2999293095       -6.5529136690       -7.8142941712
 C        -6.8420869333       -4.7916641053       -7.4040447295
 C        -5.6209046902       -4.9789590176       -8.5097116662
 O        -4.4756219186       -4.8144087025       -8.1143143502
 C        -5.8354870107       -5.4227747499       -9.9912243532
 C        -5.1116254210       -4.4494346623      -10.9153892157
 C        -5.2910385009       -4.9190893721      -12.3541419030
 O        -5.5210777416       -6.1042151116      -12.5302988824
 C        -5.1825353286       -3.8336314746      -13.4506116997
 C        -4.2946553288       -2.6876925850      -13.0911043105
 O        -4.7211078478       -1.8851263004      -12.2754651305
 C        -2.9042381461       -2.4178540508      -13.7807983734
 C        -1.8730768304       -2.6438821704      -12.6392811073
 C        -0.6439581252       -1.8040798210      -12.8542133521
 O        -0.6010072084       -0.7764070027      -13.5520934481
 C         0.6515485468       -2.1479422520      -11.9256267118
 C         1.8761579624       -1.1483516288      -12.3936641144
 O         2.7322837486       -1.5059341213      -13.1733835404
 C         1.9306946561        0.2304403934      -11.8903947716
 C         3.3242968001        0.3322966716      -11.1393976837
 C         3.2975123041        1.6471509453      -10.1637923367
 O         2.2890588750        2.1215682452       -9.7325395783
 C         4.6578222192        2.5301895546      -10.1742610681
 C         4.7008660175        3.4157826915      -11.5127816357
 O         5.5906928817        3.0802298389      -12.3098237277
 C         3.7503393248        4.6005532467      -11.6598890532
 C         4.6335773304        5.9152449462      -11.4739708510
 C         5.6649650472        6.1283060524      -12.5142722539
 O         5.7505363763        5.5531446505      -13.5720903655
 C         6.6631727524        7.3946854685      -12.1723893458
 C         7.5628081312        7.5788904456      -13.3811958418
 O         7.5348239911        8.5507440486      -14.1096365906
 C         8.5136733310        6.3588052109      -13.7145418208
 C         9.0242159525        6.4113903246      -15.1389695315
 C         8.0263466193        6.1895767906      -16.3801592641
 O         7.2642013579        5.2829306049      -16.3213016035
 C         8.2833872058        6.9096327340      -17.8027879659
 C         8.8080437295        5.5765329805      -18.7703564233
 O         9.6387373797        4.8865705887      -18.2778418929
 C         8.1820426049        5.4494505403      -20.2074144327
 C         8.7693423246        4.2915167182      -20.9875556652
 C         7.9778139085        2.9261347282      -20.7117273573
 O         6.8368757009        2.7510960487      -20.2955619450
 C         8.8514020712        1.6680769470      -20.8717208394
 C         9.3125130162        1.2290663634      -19.2714910243
 O        10.4215336435        0.8688382502      -19.0919817639
 C         8.0594663358        1.3683806605      -18.3086129391
 C         8.4385371185        0.7799842688      -16.9538435089
 C         7.3664558572        1.1001796681      -15.8942493907
 O         7.6474474785        1.9415029558      -15.0203471926
 C         5.9203997421        0.3916729937      -15.9525354044
 C         5.0645384090        1.5026295253      -16.7325812931
 O         5.0450610633        2.6354090947      -16.2628714427
 C         4.3075362748        1.1354140711      -18.0234839344
 C         5.8960752809       -0.9416619734      -16.6263408346
 C         5.4037365132        0.1986318146      -14.4986400334
 C         8.0234319159        0.4937593218      -21.4943492255
 C        10.3310222473        1.8523433638      -21.6555942126
 C         6.9659432605        7.4338485172      -18.3529814131
 C         9.4622845589        7.8880524873      -17.7307918310
 C         5.7806082119        8.6598811882      -12.0586695543
 C         7.4153237780        7.0201311182      -10.8630699125
 C         4.7127028981        3.5541050039       -8.9637228362
 C         5.9649388430        1.6682441594      -10.0653352773
 C         0.4175214037       -1.9848060712      -10.3945833273
 C         1.0677992582       -3.5415476213      -12.4249297781
 C        -4.6549281695       -4.6248901458      -14.7515550535
 C        -6.6460512429       -3.2579762998      -13.6191317104
 C        -7.9169904184       -3.9248849634       -8.1525688475
 C        -6.1603933974       -4.0901993831       -6.2220605973
 C        -6.7298562267       -9.7007521443       -2.8560480807
 C        -7.8371189416      -11.1859870702       -4.6169495330
 C       -14.0322607814      -10.0404550112       -1.2899119350
 C       -14.5839158670       -9.5264086594       -3.6983902421
 C       -15.4921980548       -3.3307337074       -3.2424267912
 C       -15.9094389600       -2.3728638252       -0.8894559589
 C       -22.4607516463       -4.0712224991       -3.9085155708
 C       -22.4646070950       -6.3036880932       -2.5082886362
 H       -22.0739808620       -5.3646307198       -6.0608842941
 H       -22.4661660649       -6.9495635455       -5.1913914123
 H       -21.0967440621       -6.8148245246       -6.3959909964
 H       -21.1281573334       -2.7861524599       -1.3264326721
 H       -20.2762688617       -2.5044938681       -2.9573192955
 H       -18.9732320211       -3.4270431239       -0.4571597166
 H       -18.5638272545       -1.8395769436       -1.0178855590
 H       -14.2124737598       -4.8789255465       -0.3572568738
 H       -14.0512332291       -5.3531401618       -1.9681618822
 H       -15.4571830236       -7.0431071823        0.1643478763
 H       -13.8105977623       -7.2027952329       -0.2283945666
 H       -12.0326257048      -10.1959517898       -3.4846937544
 H       -11.4343477944       -9.8003029064       -1.8808208366
 H       -10.1845974650       -7.8339001183       -3.2495152691
 H       -10.4747358389       -8.7492616017       -4.6311901438
 H        -7.2537808415       -9.1081090407       -6.8736229706
 H        -5.8171417037       -9.1626900637       -5.9788585761
 H        -5.2955343748       -7.0963117826       -6.8475794415
 H        -6.3139407572       -6.5782311331       -5.4715882819
 H        -6.9030737064       -5.6180697544      -10.2053494194
 H        -5.3219845803       -6.3563516366      -10.1116207311
 H        -3.9911879564       -4.2962172029      -10.4990103897
 H        -5.5569312030       -3.4622179236      -10.8832722230
 H        -2.7142701880       -1.4049735194      -14.0885394338
 H        -2.8458791224       -2.9693200254      -14.7474302268
 H        -1.8358486840       -3.6781982477      -12.6307287284
 H        -2.4074928236       -2.3444995052      -11.6381428587
 H         1.0894556356        0.6235425804      -11.3044688198
 H         2.0310317234        0.8943588451      -12.8058283108
 H         4.2139429711        0.3338217146      -11.8145293893
 H         3.5038780612       -0.5513217216      -10.6490947548
 H         2.9081709579        4.5216298784      -11.0837329781
 H         3.4178022834        4.4515803047      -12.6724528671
 H         5.1200058929        5.8554036588      -10.5164303874
 H         3.9753518784        6.7802745322      -11.7034638705
 H         7.9921174352        5.4092905455      -13.5079025322
 H         9.3954842046        6.3853056121      -13.0842045576
 H         9.7662175466        5.6894569331      -15.2826514723
 H         9.3804245723        7.4142213913      -15.4164039382
 H         8.4102902003        6.4332262132      -20.6557883834
 H         7.0894293096        5.3594982232      -19.9840083767
 H         9.7381145333        4.0502587915      -20.6558340963
 H         8.8220472216        4.5289541283      -22.0874855760
 H         7.1416789801        1.0156889490      -18.8320566156
 H         7.9420701889        2.4185289245      -18.1481352737
 H         9.3460817960        1.1404001441      -16.5112383673
 H         8.5245829710       -0.3181320199      -17.1517401300
 H         5.0450773393        1.0897253352      -18.7842213448
 H         3.6881921883        2.0268242789      -18.1833157382
 H         3.6790556272        0.2585754651      -18.2151275724
 H         4.9498723132       -1.3857006910      -16.7566519624
 H         6.3884984962       -1.7544901285      -15.9867314744
 H         6.2556637101       -0.9612104420      -17.6797778330
 H         4.5874120021       -0.4310369677      -14.3685157778
 H         5.1859096674        1.1342415215      -14.0014993219
 H         6.3597107323       -0.1147900135      -13.9935598143
 H         8.6209926508       -0.3507553447      -21.7172993079
 H         7.6319077344        0.9674862992      -22.4066580051
 H         7.1899365622        0.1379107305      -20.9650758062
 H        10.9643991600        0.9650033169      -21.4598511154
 H        10.9366949580        2.6478460406      -21.1003141072
 H        10.1324768778        2.0249802860      -22.7256011031
 H         6.5853185289        8.1817975932      -17.6599744081
 H         6.1899206340        6.7084578076      -18.5646850975
 H         7.2223166438        8.0880169647      -19.1379140823
 H        10.3533087452        7.3779505203      -17.2672178544
 H         9.1620044316        8.6736443518      -17.0153555441
 H         9.6702968683        8.1725428579      -18.7621400452
 H         6.3601058374        9.5303208344      -12.3960614005
 H         5.3402857499        8.7509619046      -11.1026040535
 H         5.0521656228        8.6349451025      -12.8554807031
 H         6.7938368177        7.3139283377      -10.0570107356
 H         8.3567284174        7.5763511235      -10.7305971506
 H         7.5595476489        5.9732976458      -10.8110638070
 H         5.7122670541        3.5868333429       -8.6468810796
 H         4.0030504487        3.1580020563       -8.2535464278
 H         4.2588452450        4.5419336018       -9.3045870572
 H         6.8153850286        1.9397325846      -10.5642278406
 H         5.8722741756        0.6107956996      -10.2834590094
 H         6.3292256703        1.6817928052       -9.0157370166
 H         0.3039048952       -0.9901863827      -10.1999467164
 H         1.2674974736       -2.2990794421       -9.7968542656
 H        -0.3989143611       -2.5957465998      -10.0767963289
 H         0.6468578006       -4.3932268029      -11.8735390772
 H         2.1331671966       -3.5830377716      -12.2052876717
 H         0.8391399278       -3.7131401314      -13.5133931878
 H        -5.1291620930       -4.1912250632      -15.6192025615
 H        -5.0306744485       -5.6313054063      -14.5986498499
 H        -3.6065695835       -4.7715426016      -14.9835748418
 H        -6.7745496522       -2.6563290567      -14.5188952496
 H        -6.8044852491       -2.7624458119      -12.7049732610
 H        -7.2551521410       -4.0922761904      -13.6702129397
 H        -7.5350937073       -3.1057211157       -8.6559142829
 H        -8.7314447767       -3.4752852643       -7.5360394616
 H        -8.5306617836       -4.5630224041       -8.8325848053
 H        -6.5429747662       -4.3031036423       -5.2242865997
 H        -6.3913497503       -3.0255298473       -6.2921551788
 H        -5.0477121501       -4.1858244471       -6.2422877404
 H        -6.7917624378      -10.5812825248       -2.2530169878
 H        -6.7624620736       -8.8012208431       -2.1987292704
 H        -5.7411137402       -9.6222010479       -3.4014789366
 H        -7.8758034339      -12.0443663106       -3.9421766924
 H        -7.0132358056      -11.4315002094       -5.2847865978
 H        -8.6130376433      -11.2551664646       -5.3339707740
 H       -13.2574403149       -9.8904284347       -0.5101916810
 H       -13.6460012935      -11.0008417914       -1.7023159043
 H       -14.9564438086      -10.1978894797       -0.7685203468
 H       -14.9768138740       -8.7849930462       -4.5032542346
 H       -15.3972219164      -10.2331063521       -3.7113598682
 H       -13.8061374311      -10.1163529852       -4.2169196702
 H       -15.9802251701       -3.9542216206       -3.9298496612
 H       -14.4356795999       -3.5362381049       -2.9435002608
 H       -15.5679042799       -2.2608138682       -3.5740265922
 H       -16.6558416154       -2.2641788757       -0.1569547899
 H       -15.8469537459       -1.4208841143       -1.3819747089
 H       -14.9331643876       -2.3847728901       -0.4567304167
 H       -21.7672954787       -3.3465386804       -4.3966496128
 H       -23.0987332722       -3.5156989866       -3.1498865246
 H       -23.0441354233       -4.3543126155       -4.7272346414
 H       -23.0311075607       -5.7910625184       -1.6570228165
 H       -21.9171970647       -7.1373623607       -2.0662334360
 H       -23.1915772859       -6.6608389663       -3.1723404299
 Na      -17.9057541400       -6.2135710874       -2.6963929237
 Na        6.3828418514        3.6938026815      -14.5343704284
