232

 C        -9.3238168003        5.6609143952      -21.0544846293
 C        -8.7176314867        4.2373671761      -20.8691317166
 O        -8.5947238086        3.7012395306      -19.8025710481
 C        -7.9078660256        3.5075543450      -22.1070394462
 C        -8.9746235231        2.4458239026      -22.4390535237
 O        -9.0489380930        1.4042294452      -21.7683415748
 C        -9.9619599063        2.7191448843      -23.6150610042
 C       -10.8906122373        1.4001230522      -23.8767517316
 C       -12.1002514974        1.2708731843      -23.0441446023
 O       -12.2511588610        2.0842632963      -22.1348185937
 C       -13.0007511154       -0.0557565940      -23.0601968713
 C       -12.7787566252       -0.6595867294      -21.6188951655
 O       -12.1598836949       -1.7316055074      -21.4401407709
 C       -13.4295621135        0.0689109218      -20.3999856689
 C       -12.7299072810       -0.2703463213      -19.0074765505
 C       -11.1429899716       -0.0716293387      -18.8065900011
 O       -10.6550846697        1.0249297780      -18.9255575731
 C       -10.3670757102       -1.3364486334      -18.2044526648
 C        -8.9401042900       -0.7984846751      -17.9308240730
 O        -8.1600968224       -0.7596740691      -18.9035957118
 C        -8.4152777346       -0.3498490851      -16.5826132473
 C        -6.8957586612       -0.4471331018      -16.4954241006
 C        -6.2364420785        0.8630143798      -16.9595188343
 O        -6.8309021750        1.6354075425      -17.7159769749
 C        -4.7763297476        1.2009496644      -16.3387632627
 C        -5.0741944327        1.6062110576      -14.7852687856
 O        -6.1691829166        1.4780257389      -14.3013121797
 C        -3.8321005212        2.0685889475      -14.0319765021
 C        -3.8528627145        1.8194316557      -12.4684082911
 C        -2.8097554483        0.8358583968      -12.0125669696
 O        -2.2797123728        0.1433989953      -12.8462077533
 C        -2.3842199133        0.7230708382      -10.5384454696
 C        -1.2603485047       -0.3590230451      -10.2721774744
 O        -0.4814061804       -0.0787952915       -9.3469376846
 C        -1.1241552234       -1.6994719144      -11.0377562911
 C        -0.0968659089       -2.6739181276      -10.5315035008
 C        -0.5072789274       -3.2787486040       -9.1769258473
 O        -1.3432988198       -2.6509938320       -8.5337583434
 C         0.2157403256       -4.5172466512       -8.6497113210
 C         1.6967231813       -4.0188377926       -8.1066627783
 O         1.8335747673       -2.9257479354       -7.6793907541
 C         2.7249251185       -5.0445169553       -8.1625215429
 C         4.0241341201       -4.6757936363       -7.4661828922
 C         3.8908485760       -4.7486231993       -5.9658608983
 O         2.9039825051       -5.2533380489       -5.4316636704
 C         5.0332669855       -4.0298644724       -4.9984711197
 C         4.6602626160       -2.5015300089       -4.8434282613
 O         4.9819506355       -1.7044787853       -5.7278371358
 C         3.7953909652       -2.0764123263       -3.6233677295
 C         3.2605670240       -0.6843571317       -3.9713186563
 C         2.5481204091       -0.5079569842       -5.3288309244
 O         1.6528987640       -1.2929142633       -5.5846241323
 C         2.8377135928        0.6492382922       -6.2679128762
 C         1.4325622237        1.4901267581       -6.2067290000
 O         0.4087956487        0.9563245185       -6.6249973018
 C         1.4842201271        3.0876971736       -5.8866976829
 C         0.0724647292        3.4920393270       -5.6487638894
 C        -0.2492375559        3.0200294733       -4.2324676444
 O         0.5346223995        2.2793036222       -3.6914767911
 C        -1.6836497052        3.3363610162       -3.8686425121
 C        -2.6157138683        2.6062535774       -4.9745004654
 O        -3.3358234491        3.1895105008       -5.7691605279
 C        -2.3074685304        1.0864518920       -5.1725195106
 C        -3.5184426641        0.2244320171       -4.9465094789
 C        -3.4159371716       -1.1783041661       -5.5576211552
 O        -2.3253805853       -1.4923524362       -6.0151442027
 C        -4.6134901198       -2.1147230187       -5.4169525200
 C        -4.2887936496       -3.0753448860       -4.1864482982
 O        -5.2146984659       -3.5472910344       -3.5630881476
 C        -2.7795153042       -3.3324614453       -3.8060271097
 C        -2.6773543045       -4.6974119946       -2.9886620663
 C        -1.5009212583       -4.7060792970       -2.0812195561
 O        -1.0975844316       -3.6766332163       -1.5702467707
 C        -0.7352487801       -5.9965533295       -1.6273993322
 C        -1.7586435497       -7.1342729379       -0.9702656464
 O        -2.7054067199       -7.5640456713       -1.5634630764
 C        -1.7067458642       -7.4715642441        0.4921308377
 C        -1.5480408102       -9.0922195370        0.6116535040
 C        -0.1256015117       -9.6544462975        0.7339812368
 O         0.8189457031       -8.9314661215        0.9435738140
 C        -0.0372075947      -11.2086393949        0.8904123864
 C        -1.0196382805      -11.8897491946       -0.2509424860
 O        -1.1180377228      -11.3730173657       -1.3531661123
 C        -1.4254477791      -13.4051639197       -0.0412687213
 C         1.3894818951      -11.7683090092        0.5034762619
 C        -0.3834865918      -11.5720797132        2.3326650910
 C        -0.2383196313       -6.5586923232       -2.9568880497
 C         0.4843235708       -5.6719682324       -0.7063571758
 C        -5.9392940694       -1.4396871470       -5.0703130076
 C        -4.6279607573       -3.0299671279       -6.6208498316
 C        -2.0621159970        2.8795429322       -2.4695122064
 C        -1.9464442413        4.8517751748       -3.9012574571
 C         4.1091539830        1.5052157145       -5.9744697498
 C         3.0332914038        0.0066806785       -7.6450087285
 C         5.0625258637       -4.8350812230       -3.6689181649
 C         6.4881381399       -4.1025116006       -5.7328898048
 C        -0.6151795895       -5.0178775710       -7.4392067254
 C         0.4080002645       -5.6242749581       -9.7501721010
 C        -1.6962906106        2.1276618555      -10.2366571904
 C        -3.5160284559        0.4859430889       -9.5028849652
 C        -3.9590229145       -0.0954432425      -16.3905021813
 C        -4.2265870992        2.4764100964      -17.0640289829
 C       -11.1405751571       -1.8775347150      -16.8865332200
 C       -10.4015957022       -2.4940346413      -19.2851901193
 C       -14.4729751162        0.5123935169      -23.0998130856
 C       -12.6144144949       -1.0721828424      -24.1410075961
 C        -7.5834228172        4.3024422151      -23.3693395551
 C        -6.5552677459        2.8542180651      -21.5768886998
 H       -10.2824540563        5.7957386972      -21.6884806913
 H        -8.5058653385        6.4157869550      -21.2858414207
 H        -9.6757430425        5.8544864155      -20.0570897209
 H        -9.3527750221        3.0206530798      -24.5484613873
 H       -10.5865720836        3.4951233512      -23.1448255939
 H       -10.2009416595        0.5661127355      -23.6795101218
 H       -11.2286202858        1.2975395122      -24.9156527346
 H       -14.4633006869       -0.1696036580      -20.3559797319
 H       -13.4306688444        1.1494161877      -20.4703981593
 H       -13.0767086133       -1.3145591303      -18.8042651895
 H       -13.1613263276        0.4540394420      -18.2925665376
 H        -8.7304095873       -0.9591094114      -15.8401382577
 H        -8.7859265772        0.7108534654      -16.5369319815
 H        -6.6401991769       -1.2826656635      -17.1575307262
 H        -6.6390322549       -0.5325807301      -15.4770282628
 H        -3.4970145994        3.1383082823      -14.2022538908
 H        -3.0793293361        1.4346000125      -14.4769723174
 H        -4.8533791229        1.5149553461      -12.1789764456
 H        -3.6424948609        2.7861871377      -11.9073771946
 H        -0.7756004653       -1.5270375825      -12.0770151291
 H        -2.1313360115       -2.0690184906      -11.0402435829
 H         0.9770931176       -2.2555931347      -10.4772857805
 H         0.0245495183       -3.4700098173      -11.2852742248
 H         2.9802735517       -5.4649808202       -9.1750620074
 H         2.3995332300       -5.9251697468       -7.7133086603
 H         4.2323698697       -3.6614565088       -7.8028562792
 H         4.9526648209       -5.2512632302       -7.7475257691
 H         4.5090773227       -2.1192829443       -2.7929640392
 H         3.0285071649       -2.8959698112       -3.5517865317
 H         4.0591921277        0.0291850452       -3.7869793563
 H         2.5006566737       -0.4079622236       -3.2050354517
 H         2.0436202063        3.5349402783       -6.6960468930
 H         2.1830952016        3.2093880496       -5.0745518872
 H        -0.5420390637        2.8767548892       -6.3141964051
 H        -0.0326940164        4.5527450912       -6.0279605134
 H        -1.4837690913        0.7742144242       -4.5814471201
 H        -1.8426440261        1.0242580931       -6.1360857749
 H        -4.4198320727        0.7853556229       -5.1609290928
 H        -3.6217454970        0.1161756989       -3.8296362756
 H        -2.4411885083       -2.5589806482       -3.1165968032
 H        -2.0228704597       -3.3362695239       -4.6250633645
 H        -2.7388914215       -5.5651502691       -3.6195828703
 H        -3.5142299548       -4.7744290584       -2.2822077764
 H        -2.6209551610       -7.1879384929        1.0624084407
 H        -0.8126464864       -6.9872302368        0.9365287009
 H        -1.9471362481       -9.5157355264       -0.3642714079
 H        -2.2125422649       -9.5001095067        1.4441585676
 H        -2.0302994424      -13.5759927434        0.7980095828
 H        -0.4322464571      -13.8809522495        0.0169759601
 H        -1.8539260872      -13.8284356427       -0.9189259661
 H         1.3054167501      -12.7288520908       -0.0201262913
 H         1.9498440944      -11.9694663611        1.4554408456
 H         1.9521403489      -11.0199086660       -0.0972040003
 H        -0.0843751095      -12.5189687958        2.7442443155
 H        -1.4533614982      -11.4232167455        2.5888982999
 H         0.0102074498      -10.8283281828        3.0348910236
 H         0.5012106876       -7.2375517892       -2.5976786321
 H         0.1791509554       -5.7585938777       -3.5719427399
 H        -1.1364984934       -7.0495909769       -3.4671234425
 H         0.9843928381       -4.9747106156       -1.3801793007
 H         1.1372487925       -6.4586351463       -0.4909414976
 H         0.2113094235       -5.2018375276        0.2087122164
 H        -6.0362137409       -1.3303171220       -3.9665949831
 H        -6.8118553738       -2.0753753309       -5.3901841307
 H        -6.0340981187       -0.4541304781       -5.5117851139
 H        -5.4482088168       -3.7650579999       -6.4968727176
 H        -3.5741277492       -3.4744795844       -6.6263155285
 H        -4.8380866460       -2.5725576231       -7.5950576315
 H        -3.1009541568        3.0159925211       -2.1770510162
 H        -1.4323168261        3.4334290688       -1.7454012040
 H        -1.8938910071        1.7860590410       -2.3806282702
 H        -1.7549651272        5.4644928958       -4.7635340630
 H        -1.1935167291        5.2591436732       -3.2901303860
 H        -2.9289734481        5.0704626941       -3.4525634718
 H         3.9937890643        2.3397988187       -6.7405113829
 H         5.0332309991        0.9267544335       -6.2380864861
 H         4.1556647025        2.0386548111       -5.0633365654
 H         2.3344184755       -0.8290770310       -7.6996309286
 H         4.0530097744       -0.2198927885       -7.8066074684
 H         2.6348756247        0.5972802889       -8.4168100204
 H         4.4930344213       -5.7803569450       -3.6571234504
 H         4.6538561287       -4.2271559902       -2.8316241531
 H         6.0221535363       -5.0016899503       -3.2216289771
 H         7.0020415187       -5.1753681281       -5.6844190251
 H         7.1022361388       -3.5602138965       -5.0936400105
 H         6.5571982582       -3.7512750132       -6.7567475715
 H        -0.2438541542       -5.9135585160       -7.0214044221
 H        -1.6686342859       -5.1236111849       -7.7720221572
 H        -0.6559509552       -4.1509489561       -6.7714168714
 H         0.8103665689       -6.4210060890       -9.2297941290
 H         1.1302399154       -5.3858905815      -10.5739748404
 H        -0.5278819798       -5.8211606387      -10.1458049046
 H        -2.3732814520        2.8095739816       -9.7135508373
 H        -1.3264698890        2.6595854905      -11.1303956226
 H        -0.8284397791        1.9585059369       -9.5827693670
 H        -3.1697516598        0.4616481677       -8.4325377600
 H        -4.1207407955       -0.3949486531       -9.6531943618
 H        -4.2831381673        1.2940290025       -9.5165482087
 H        -2.9813989555        0.0896004906      -15.8315593247
 H        -3.6960797733       -0.5408862618      -17.3453495252
 H        -4.4570527006       -0.8809608847      -15.8620549806
 H        -3.1087453299        2.3976052763      -17.2190704512
 H        -4.4467772563        3.3760212208      -16.5264868539
 H        -4.6957161658        2.4851147745      -18.0313819436
 H       -11.0797204363       -2.9007255466      -16.9050569958
 H       -12.1565123387       -1.4696869683      -16.9159390548
 H       -10.7871433713       -1.5510003224      -15.8636628531
 H        -9.7270859015       -3.2713476384      -19.0341847701
 H       -10.1426775788       -2.1549637261      -20.2534854464
 H       -11.3899989881       -2.8485818387      -19.2930341140
 H       -15.0448908394        0.4491944790      -24.0360267133
 H       -14.5376762074        1.6033427871      -22.8138343388
 H       -15.0707321332        0.0909760197      -22.3124621423
 H       -12.7560719194       -0.7389682749      -25.1316397627
 H       -13.2697582238       -1.9274753659      -23.7691719897
 H       -11.6494183400       -1.4969398138      -23.9728375846
 H        -6.9877520998        3.8400335741      -24.1401755751
 H        -7.0191030014        5.1924329435      -23.0462820718
 H        -8.4307836574        4.5922149854      -23.8416306199
 H        -6.7227524812        2.1219043240      -20.7711525452
 H        -5.9513275046        3.6673028408      -21.1824884200
 H        -6.0682407437        2.3724250494      -22.4299963572
 Na       -8.4966376667        1.4956620777      -19.3348424933
 Na        0.0148205969       -1.4074757806       -7.1703009717
