232

 C        -9.0781281792        6.0349194206      -20.9080596381
 C        -8.7509349531        4.5444266176      -20.8417284468
 O        -9.1948100327        3.8922711454      -19.9675910471
 C        -8.1998554483        3.7895735583      -22.0499485428
 C        -9.2247235237        2.5135485200      -22.4071779473
 O        -9.3748091844        1.4909676470      -21.7919295862
 C        -9.8840956291        2.5405277726      -23.7868479324
 C       -10.8640164629        1.3022478186      -23.9086183275
 C       -12.0904002306        1.2418004815      -22.9156632548
 O       -12.4196748519        2.2700382061      -22.3355615341
 C       -13.0771481074        0.0421149743      -22.9615811191
 C       -12.9862055702       -0.6053691918      -21.5336031708
 O       -12.3276870764       -1.5837142000      -21.3581099373
 C       -13.6486391478        0.0222416400      -20.2949997403
 C       -12.9045727543       -0.4979859792      -18.9852056341
 C       -11.3951620468       -0.3670869681      -18.9003281592
 O       -10.8528323755        0.6401108493      -19.2899530395
 C       -10.5103522201       -1.5065366876      -18.0956307962
 C        -9.0226431652       -0.9704754070      -17.9617833545
 O        -8.2969694901       -0.7009019661      -18.9553718224
 C        -8.5304721929       -0.3683397231      -16.5638819571
 C        -6.9747401361       -0.3299390955      -16.4805401657
 C        -6.3114551410        0.9291617408      -17.0165791620
 O        -6.6994627662        1.5819716040      -18.0045935560
 C        -5.0441757938        1.3584856666      -16.3571031984
 C        -5.2430106417        1.5966051577      -14.8416424423
 O        -6.3417276174        1.4322920212      -14.3474553589
 C        -4.0678995362        2.1079282315      -14.0011233893
 C        -4.0629951179        1.3707912097      -12.6078221838
 C        -2.8303240581        0.4237300902      -12.2490236230
 O        -2.3163130617       -0.2954806424      -13.0424140021
 C        -2.2574860297        0.5812609568      -10.7562788324
 C        -0.9943178866       -0.3470738303      -10.4680475475
 O        -0.3676069534       -0.0842950479       -9.4465011127
 C        -0.6633942368       -1.5507207730      -11.3210409677
 C         0.2224770722       -2.5794588640      -10.6712972894
 C        -0.3941137169       -3.3846674490       -9.4864083262
 O        -1.4344816822       -3.0191069925       -9.0042701085
 C         0.4377252566       -4.5286467428       -8.8809128208
 C         1.6660673081       -3.9311716717       -8.2549324620
 O         1.6118676097       -2.7964254843       -7.8464953625
 C         2.9167609076       -4.7222371885       -8.1652816897
 C         4.0544550493       -4.1792486724       -7.2730421958
 C         4.0534989105       -4.6177735078       -5.7670627403
 O         3.2205524714       -5.3765404613       -5.3335695919
 C         5.3119317917       -4.1901930373       -4.8516297859
 C         4.9338761585       -2.6705105254       -4.6982555393
 O         5.3396838393       -1.8605595968       -5.4984898154
 C         4.1161140608       -2.2155644458       -3.4374324837
 C         3.6704630788       -0.7413882729       -3.7610350648
 C         2.6529110107       -0.4888544441       -4.8613181869
 O         1.7233673956       -1.2047372300       -5.1823868409
 C         3.0547427920        0.7150574539       -5.9651684230
 C         1.6745083467        1.5148979931       -6.1844671681
 O         0.6003636948        0.9175368181       -6.3564836254
 C         1.7391329434        3.0934912180       -6.1459978058
 C         0.4536306499        3.7870624135       -5.6805108689
 C         0.0433333155        3.1886163609       -4.3295081672
 O         0.7744503223        2.6233470580       -3.5721148309
 C        -1.5423574169        3.4340206223       -3.9289908590
 C        -2.5770802888        2.7152036281       -4.8805154048
 O        -3.3606147369        3.2900642608       -5.6011160398
 C        -2.3630453821        1.1687003982       -5.1341216119
 C        -3.6605799253        0.4157968445       -5.0282981712
 C        -3.5518812184       -1.0455838579       -5.4943516976
 O        -2.5256366612       -1.4500377928       -5.9942919264
 C        -4.6485875433       -2.0753502205       -5.3670088338
 C        -4.5514940108       -3.1256806242       -4.0949005342
 O        -5.5232831284       -3.1352589800       -3.4107466772
 C        -3.1806151824       -3.6904002830       -3.7740636609
 C        -3.1675065263       -4.9442749460       -2.8440158209
 C        -1.9392680506       -4.8362386106       -1.9372931736
 O        -1.5693167941       -3.7249086095       -1.5228460501
 C        -0.9398909985       -6.0169372230       -1.6306388046
 C        -1.8141782173       -7.1203489424       -0.8773152017
 O        -2.8284013832       -7.4421571203       -1.4640504398
 C        -1.5898626466       -7.6397922711        0.5735133263
 C        -1.5021540575       -9.1903468114        0.5764393740
 C        -0.1277228132       -9.6755940521        0.9012399073
 O         0.8098677958       -8.8971218886        1.1807491067
 C         0.2437711842      -11.3163813098        0.6850559781
 C        -0.5957639870      -12.0749315720       -0.4432403877
 O        -1.1152534697      -11.5652571422       -1.4184147936
 C        -0.9669357266      -13.5796352991       -0.1605376235
 C         1.7760348993      -11.2660884410        0.2726687623
 C         0.1701772668      -11.8824916778        2.0652719793
 C        -0.2079894115       -6.6690668037       -2.9057121154
 C         0.2663153026       -5.4263982928       -0.7812606616
 C        -6.0510933203       -1.4839264902       -5.2502092810
 C        -4.5605584365       -3.0641467149       -6.6403909899
 C        -1.7687712688        2.8637956688       -2.5103793282
 C        -1.7247559884        4.8970815858       -3.8615773664
 C         4.2962973879        1.6553263833       -5.6449968929
 C         3.3881225907       -0.1393741189       -7.2626383444
 C         5.1681493549       -4.9593566979       -3.4939420808
 C         6.6950028838       -4.4581210220       -5.4356450761
 C        -0.4868062271       -5.3032572178       -7.8198711995
 C         0.6943849357       -5.4653637414      -10.0317880958
 C        -1.9184747784        2.0235430482      -10.3465692844
 C        -3.3059685546        0.0076764419       -9.8369727868
 C        -4.0723901041        0.1034035113      -16.4255497080
 C        -4.3686131033        2.6254217655      -17.0169233875
 C       -11.1752164284       -1.8900332641      -16.8141798795
 C       -10.5398171850       -2.6932107341      -18.9990854506
 C       -14.6265843035        0.3958762770      -23.2451242998
 C       -12.5904809346       -1.0593805412      -23.9120933388
 C        -8.0348679902        4.6343482690      -23.3851489611
 C        -6.8269160843        3.1401152225      -21.5038455372
 H        -9.7526462398        6.0613127141      -21.7969228168
 H        -8.1924413132        6.6256921064      -21.1103101784
 H        -9.5745025035        6.4310106828      -20.0095205175
 H        -9.0009256340        2.4773398515      -24.4939453213
 H       -10.4906797235        3.3732568757      -24.0130526385
 H       -10.3132280145        0.3840095189      -23.8631720386
 H       -11.2155232523        1.2924827031      -24.9281383681
 H       -14.6773629876       -0.2260048315      -20.1706639247
 H       -13.5644276157        1.1105077812      -20.2863740312
 H       -13.3116587121       -1.5155981928      -18.8751056688
 H       -13.3076842992        0.1527388937      -18.2086092689
 H        -8.8584433881       -0.9418821919      -15.7625719545
 H        -8.9069267863        0.6783914911      -16.4007912638
 H        -6.5687484947       -0.9835504350      -17.3199280728
 H        -6.6720461191       -0.5221162148      -15.4606983132
 H        -4.2498708145        3.2264074103      -13.8642914686
 H        -3.1321657932        1.9953434491      -14.5189191132
 H        -4.9796612644        0.9301261219      -12.3380856636
 H        -4.0171879045        2.0867980897      -11.7574550666
 H        -0.1233590888       -1.0957906011      -12.1606501395
 H        -1.5776853666       -2.0763596920      -11.5732637240
 H         1.2175946421       -2.2588046556      -10.2516314213
 H         0.5513021969       -3.3207367443      -11.4303387700
 H         3.3520967661       -5.0631644185       -9.0308247425
 H         2.7381889910       -5.7717274941       -7.7523774524
 H         3.9543755961       -3.1020349006       -7.1604779115
 H         5.0798070970       -4.1923701848       -7.7830162423
 H         4.9307119928       -2.1801176341       -2.7039302495
 H         3.3144305382       -2.8676725691       -3.0480339369
 H         4.5342379246       -0.1170833625       -3.8985143902
 H         3.4052282530       -0.2615986955       -2.7996635763
 H         1.9524232973        3.2074946928       -7.1669675304
 H         2.6748427376        3.2842935936       -5.6002680140
 H        -0.3309482374        3.6529130781       -6.3668764405
 H         0.7077048215        4.8662809618       -5.4487148011
 H        -1.5148758448        0.6760320415       -4.7597086463
 H        -2.1351241318        1.1515144928       -6.1994984534
 H        -4.4345923758        0.9112886178       -5.6623400962
 H        -4.0796868237        0.4686919051       -3.9721535668
 H        -2.6048166469       -2.9283034963       -3.1995750238
 H        -2.6339678153       -3.9512709399       -4.7384051864
 H        -3.0805032010       -5.8809093999       -3.3759571739
 H        -4.1077798385       -5.0250749817       -2.3111643805
 H        -2.5120039197       -7.1977063731        0.9926925528
 H        -0.6929161537       -7.2715500334        1.0747238747
 H        -2.0189311212       -9.6103869784       -0.3050854464
 H        -2.0418523040       -9.5479041786        1.5115292779
 H        -1.7590758096      -13.5405565152        0.5673621188
 H        -0.1277936110      -14.1595614529        0.2846500873
 H        -1.3518848224      -14.0314829434       -1.0797620528
 H         2.2192041287      -12.1696677466        0.6000480471
 H         2.3583285224      -10.4400446572        0.7231553537
 H         1.8296648327      -11.1972758100       -0.8090935686
 H         0.4708822720      -12.8959194326        2.3091605886
 H        -0.8573910075      -11.8271919534        2.4814005879
 H         0.8510441001      -11.3378476249        2.6791908403
 H         0.4149814926       -7.3751411259       -2.4164447315
 H         0.5297199317       -5.9758922638       -3.3255655253
 H        -0.9426323152       -7.3079929478       -3.4715530437
 H         1.0933005790       -5.1133610826       -1.4385471113
 H         0.6305769130       -6.1232958732        0.0133380872
 H         0.0008405588       -4.4755098151       -0.2656770741
 H        -6.1287714029       -0.5302545267       -4.7290615335
 H        -6.7179017380       -2.0859806971       -4.5977662517
 H        -6.5242946762       -1.4012230049       -6.1627921634
 H        -5.2710079547       -3.9381464774       -6.5712686852
 H        -3.4896776618       -3.4306703680       -6.7602794605
 H        -4.7382902637       -2.5508592721       -7.5605309312
 H        -2.7634175276        3.1861395078       -2.2903852885
 H        -1.1068874832        3.1547530342       -1.7021934434
 H        -1.8645001050        1.7985515777       -2.5241749698
 H        -2.1366500629        5.4253179646       -4.8001753764
 H        -0.8821410736        5.5254145524       -3.6973103668
 H        -2.4328773212        5.1240527834       -3.0550701233
 H         4.3208047550        2.3979731397       -6.4031842954
 H         5.1810670188        0.9889687819       -5.6757626079
 H         4.3098683488        2.0240781019       -4.6714729195
 H         2.3847502814       -0.3507744915       -7.7949520946
 H         3.9642609145       -1.0089155181       -6.9356603574
 H         4.0292303031        0.3931136613       -7.9821184604
 H         4.3727364068       -4.5720337614       -2.8604353541
 H         6.0613580091       -5.1164888713       -2.8516807904
 H         4.8504617921       -5.9364334388       -3.7134717943
 H         6.5702639694       -5.3215411805       -6.1894151226
 H         7.4725362372       -4.8540678057       -4.8280534865
 H         7.0383124283       -3.5632836287       -5.9251091266
 H         0.1154428247       -5.9717836774       -7.2073293146
 H        -1.2531906814       -5.6949717066       -8.4249412300
 H        -1.0021292670       -4.6318834130       -7.1698954711
 H         1.1957243232       -6.3194469645       -9.5773305077
 H         1.2810347437       -4.9956059503      -10.7887731946
 H        -0.2102963560       -5.8353564453      -10.4074225746
 H        -2.6138959696        2.7857112084      -10.4719248029
 H        -1.0609792167        2.3309377142      -10.9562944513
 H        -1.4288819870        1.9903233697       -9.3584700284
 H        -2.9617043137        0.0688466729       -8.8152331843
 H        -3.5709544263       -0.9544596282      -10.0276267968
 H        -4.1820675723        0.6304741149       -9.8070296688
 H        -3.0921461691        0.3685329119      -16.0385362502
 H        -4.0508731384       -0.3581844144      -17.4385200282
 H        -4.5237293227       -0.7490243869      -15.9336936893
 H        -3.5914685807        3.0341087770      -16.4293696039
 H        -5.1905765827        3.2730197577      -17.2658247215
 H        -3.9612765560        2.2978802841      -17.8913269935
 H       -10.4852579788       -2.1599165653      -16.0738611588
 H       -11.8669315249       -2.7027465319      -16.9539927681
 H       -11.6276955336       -0.9063076754      -16.3644889143
 H       -10.0043333072       -3.5011072669      -18.5839018364
 H        -9.9610738416       -2.3412050864      -19.9342958818
 H       -11.4559866626       -3.0896400342      -19.1622768505
 H       -14.6842511145        1.2495510475      -23.9555996187
 H       -15.1459766227        0.8187080799      -22.4108440115
 H       -15.2789442207       -0.3922450715      -23.5631961062
 H       -12.3414151430       -0.5248143076      -24.7978861156
 H       -13.4574287805       -1.7920876271      -24.0662056989
 H       -11.6578733738       -1.4558388387      -23.6204856426
 H        -7.3336326351        4.2176602925      -24.0778827310
 H        -7.8141859826        5.7000919910      -23.1502611049
 H        -8.9137035498        4.7561050399      -23.9869850947
 H        -6.8480531981        3.2491659523      -20.4196722849
 H        -5.8661687666        3.4899422318      -21.9552448550
 H        -6.9249658385        2.1026394429      -21.7440103977
 Na       -8.7490813467        1.5904472116      -19.5438260348
 Na       -0.1592985123       -1.2014679533       -6.8048760503
