232

 C        -9.1309338605        6.1227638365      -20.7873281219
 C        -9.0132743792        4.5582549784      -20.9038836809
 O        -9.1895329276        3.9233998558      -19.8960140156
 C        -8.3017071026        3.7620104275      -22.1610679763
 C        -9.1920392044        2.4781567112      -22.5684449873
 O        -9.2864792472        1.7214136176      -21.6066109038
 C       -10.0535043501        2.4327222811      -23.7888979528
 C       -10.9823589400        1.2671002485      -23.9696297827
 C       -12.2109077255        1.3655800200      -23.0361853550
 O       -12.4130115186        2.3250347444      -22.3460432612
 C       -13.0955729160        0.0369943366      -22.9855220950
 C       -12.9870762724       -0.6243204169      -21.4598337806
 O       -12.3157674884       -1.5985332052      -21.3518060031
 C       -13.6234904237       -0.0015386454      -20.1955571568
 C       -12.9085774116       -0.4765651549      -18.8786620526
 C       -11.3935671849       -0.4103505953      -18.8786152787
 O       -10.7920750705        0.5655641679      -19.3018187326
 C       -10.5525227477       -1.5313120273      -18.0464347945
 C        -9.1614972392       -0.8157880860      -17.8990525106
 O        -8.5496761189       -0.7826985530      -18.9088161548
 C        -8.5292011936       -0.3395791229      -16.5935959521
 C        -7.0057619615       -0.3484520747      -16.6199001197
 C        -6.3536573404        0.9637836688      -17.1352227531
 O        -6.8303561835        1.5903412169      -18.0479830066
 C        -5.0657455243        1.4390062424      -16.3554216262
 C        -5.3872416533        1.6625549545      -14.7972577933
 O        -6.4690418034        1.3619574847      -14.3089555240
 C        -4.0839106421        1.9596438571      -13.9546431866
 C        -4.0134908245        1.3801294550      -12.5747235867
 C        -2.7687344484        0.4888155276      -12.2892981044
 O        -2.3497754723       -0.2681183946      -13.1533402932
 C        -2.2968000872        0.4430575935      -10.7387926488
 C        -1.0020897349       -0.4177008863      -10.4211931402
 O        -0.3454264485       -0.1351276807       -9.4670723358
 C        -0.5563744364       -1.5889486707      -11.3859249990
 C         0.3725902427       -2.4761173692      -10.6381428817
 C        -0.3418337583       -3.3578564135       -9.4808638437
 O        -1.4368686509       -3.0221815253       -9.0672647467
 C         0.4231320677       -4.5960603421       -8.9161728218
 C         1.6096068590       -3.8603156836       -8.1124296077
 O         1.5193447105       -2.6527506977       -7.8212625567
 C         2.8882205157       -4.6717418534       -7.9872760769
 C         4.0851503465       -4.0170387545       -7.2249230761
 C         4.1463208897       -4.6647088724       -5.8032220764
 O         3.2454822035       -5.3679648830       -5.4475372237
 C         5.2994849336       -4.2784172398       -4.8517029488
 C         5.0723398650       -2.7145914588       -4.6327384465
 O         5.4476357278       -1.9829742143       -5.5065978869
 C         4.1115809597       -2.1784364870       -3.5132672224
 C         3.6458367626       -0.7210670311       -3.7609254554
 C         2.7391080478       -0.4956731650       -4.8714296506
 O         1.6845346894       -1.1505227865       -5.0566997095
 C         2.9673261656        0.6925366911       -5.9015211364
 C         1.8017653724        1.5579695554       -6.1159642590
 O         0.6895919944        1.1203743213       -6.3127855013
 C         1.8442530456        3.1983114850       -6.0929370539
 C         0.4547029405        3.7131624233       -5.8115375609
 C        -0.0382108846        3.1735754872       -4.3576417626
 O         0.8112967991        2.6462200543       -3.6535704986
 C        -1.5015330873        3.3803989949       -3.8578709275
 C        -2.3709249613        2.6268867627       -4.9763434644
 O        -3.2591991993        3.3163510201       -5.3942084826
 C        -2.3075990888        1.1387208112       -5.1812076887
 C        -3.6239050314        0.4054252001       -5.1258346275
 C        -3.4583984701       -1.0727875173       -5.5941428629
 O        -2.3569156174       -1.3942391294       -6.0043723186
 C        -4.7272717960       -2.0847872394       -5.3723011003
 C        -4.5251975192       -3.0251304656       -4.0381221641
 O        -5.4499828236       -3.1655738369       -3.2830697716
 C        -3.2349988459       -3.7322372872       -3.7608962268
 C        -3.2000035208       -5.0434435773       -2.8125204279
 C        -1.8499566523       -4.8789535434       -1.9623881774
 O        -1.7488256655       -3.7340935550       -1.5523110696
 C        -0.9101617918       -6.0153258769       -1.5464437539
 C        -1.8519378219       -7.0876748224       -0.7835814342
 O        -2.8598112707       -7.4797042348       -1.3856625595
 C        -1.5131626161       -7.6642263888        0.6351373187
 C        -1.5877833689       -9.1880879013        0.6398478741
 C        -0.1526546777       -9.6910767064        0.7775178723
 O         0.6834566589       -8.9106944540        1.1680826897
 C         0.2687194785      -11.2213250831        0.6478633501
 C        -0.5867178952      -12.0612213885       -0.4145288137
 O        -0.8934772926      -11.6285002599       -1.5065054474
 C        -0.7719526965      -13.5877862238       -0.1425293382
 C         1.8045967370      -11.2969786515        0.0243620417
 C         0.2207890237      -11.8237469164        2.0705190211
 C        -0.3960984246       -6.5909967439       -2.8583618181
 C         0.2775178808       -5.4508395202       -0.7294794593
 C        -6.1255523161       -1.4385595260       -5.3990849003
 C        -4.6458639534       -3.0382032613       -6.6396916064
 C        -1.7427047994        2.8401852468       -2.4474540064
 C        -1.6366250580        4.9478478134       -3.9380856783
 C         4.1882130214        1.6285584305       -5.5426071812
 C         3.3364664275       -0.1100487203       -7.1444374824
 C         5.1194543510       -5.0182434795       -3.4746958925
 C         6.6671590987       -4.4993069949       -5.4315942373
 C        -0.5405070993       -5.2970740248       -7.8774323511
 C         1.0049305774       -5.5464021376      -10.0796723872
 C        -1.8564206292        1.8933521386      -10.4069834746
 C        -3.4070170066       -0.1409624223       -9.8001699108
 C        -4.0181285000        0.2199047096      -16.4812437938
 C        -4.3639643285        2.6750586275      -17.1028740271
 C       -11.3222039852       -1.9138379642      -16.7341636890
 C       -10.4078793515       -2.8863116717      -19.0365250598
 C       -14.5079288680        0.4597849401      -23.4063729113
 C       -12.7091029304       -1.1192845102      -24.0142298198
 C        -7.9945569926        4.6191436044      -23.3568236413
 C        -6.9426014053        3.2019168282      -21.5412057140
 H        -9.7353723379        6.7254992027      -21.4694323454
 H        -8.0391921100        6.3726238520      -20.8152695441
 H        -9.3781322943        6.3201071430      -19.6661645664
 H        -9.2699232487        2.2831054135      -24.5914302978
 H       -10.6258283464        3.4022641259      -24.0159527073
 H       -10.4477091068        0.3039547251      -23.8519969129
 H       -11.1434479864        1.2165769394      -25.0529691698
 H       -14.6313055010       -0.3494791926      -20.1449636618
 H       -13.6027996659        1.0768454230      -20.1807257794
 H       -13.2775579944       -1.5030511254      -18.7773685903
 H       -13.3228250072        0.1556405653      -18.0684446930
 H        -8.9246479763       -0.8482850278      -15.6239146030
 H        -8.8153525121        0.6868556873      -16.4578629430
 H        -6.6540379681       -1.0511282041      -17.3555857268
 H        -6.6994748915       -0.4917046784      -15.6000498351
 H        -4.0684876641        3.0658324310      -13.9351614569
 H        -3.1563482030        1.6618617401      -14.4996186983
 H        -4.8113413966        0.6980055242      -12.3037969593
 H        -4.1849880320        2.0648893444      -11.7226982842
 H        -0.0466090959       -1.1232488434      -12.1691980834
 H        -1.4420279314       -2.2531802142      -11.6223411517
 H         1.1460423740       -1.9461557857      -10.1231484463
 H         0.9797804768       -3.1855260639      -11.3160575064
 H         3.2922621723       -5.0081467688       -8.8552266863
 H         2.7351583882       -5.6543280642       -7.5328459407
 H         3.8903716421       -2.9579099548       -7.0662841932
 H         5.0542521089       -3.9585036194       -7.7905568832
 H         4.5726413756       -2.2431110687       -2.4869871404
 H         3.2235978272       -2.8628368835       -3.5123321861
 H         4.3945482268        0.0499559868       -3.6062429726
 H         3.0910069772       -0.4763307817       -2.8702643751
 H         2.3210178115        3.5641855055       -6.9936531271
 H         2.5268183056        3.3227817840       -5.1988041237
 H        -0.2784523371        3.2737327329       -6.5137454974
 H         0.4899628552        4.8366177536       -5.7571016696
 H        -1.7144037549        0.6872581371       -4.4053209367
 H        -1.7376637467        0.8779782481       -6.0855701302
 H        -4.4616873783        0.7240619720       -5.8149009146
 H        -3.9984190650        0.4953967388       -4.1258538968
 H        -2.5978131972       -3.0397205540       -3.1823198921
 H        -2.8029513489       -3.9379045107       -4.7532450044
 H        -3.3509016861       -5.9840302431       -3.3008009414
 H        -4.0690655619       -4.9329196051       -2.1832192349
 H        -2.3917736626       -7.2061350118        1.1443130917
 H        -0.5764761018       -7.2495360100        1.0988775364
 H        -2.1153063612       -9.4228153865       -0.3005170256
 H        -2.2833357157       -9.5561735740        1.5064265427
 H        -1.5282963972      -13.8009594430        0.6146486392
 H         0.1376228119      -13.8559625996        0.3083676955
 H        -0.9557621188      -14.1287965472       -1.0635265221
 H         2.3281892528      -12.1110810463        0.5501429899
 H         2.3784783834      -10.3630632706        0.2172707205
 H         1.8014304932      -11.5132857446       -1.0627157108
 H         0.9593023655      -12.6423660449        2.2151317515
 H        -0.7164999122      -12.3007684435        2.3003434414
 H         0.5564138795      -11.1923523835        2.8626698951
 H         0.4696912587       -7.2203127028       -2.6088859565
 H         0.0235825659       -5.8078269877       -3.5320512125
 H        -1.1452931768       -7.2759537985       -3.0874734778
 H         0.8845875428       -4.9142756688       -1.3908325933
 H         0.9087891859       -6.1150800314       -0.1088302534
 H        -0.0994168168       -4.6434135391       -0.1267744974
 H        -6.1950605062       -0.5192218796       -4.7923306341
 H        -6.9681783225       -2.0062432034       -4.9959091374
 H        -6.3736955688       -1.1494681467       -6.4260824599
 H        -5.4873547128       -3.8042433529       -6.5282495814
 H        -3.6801523993       -3.5995707868       -6.6896343205
 H        -4.7396418157       -2.5200558555       -7.6184913173
 H        -2.8414363131        2.8232966031       -2.3050120018
 H        -1.3091992462        3.4566143109       -1.6491496224
 H        -1.3869238862        1.8400293018       -2.2975860647
 H        -1.7319358628        5.2120709460       -5.0175984174
 H        -0.8811966097        5.6323860397       -3.5752118051
 H        -2.5179155108        5.3172253539       -3.5069250572
 H         4.3373921394        2.1349234514       -6.4419227504
 H         5.0511356369        0.9937581262       -5.3288600783
 H         4.1033367075        2.2832825491       -4.6230612602
 H         2.4483513341       -0.5584390115       -7.5644846160
 H         4.1081963715       -0.8000882564       -6.7885225058
 H         3.8121866038        0.5259082000       -7.8968333137
 H         4.6850767290       -4.4387433593       -2.6583049911
 H         6.0814615114       -5.3983490482       -3.0636644543
 H         4.5147838270       -5.9350234635       -3.5848479731
 H         6.7494728016       -5.2072922614       -6.1549306444
 H         7.5113561332       -4.8073425259       -4.6977165642
 H         6.9369137869       -3.4671550399       -5.7609310899
 H         0.1440607374       -5.8268383067       -7.1748090201
 H        -1.2382539830       -5.8523186168       -8.4223994096
 H        -1.0947352041       -4.6228798367       -7.2783701818
 H         1.4071815411       -6.5063478052       -9.6732870211
 H         1.7351077540       -4.9999586410      -10.5242016764
 H         0.2735538274       -5.8572067506      -10.8316435655
 H        -2.4010216945        2.6954252844      -10.8401175129
 H        -0.8291026862        2.0682564031      -10.7256960639
 H        -1.7535084257        1.9979230525       -9.3135539427
 H        -3.0637662280       -0.3459921980       -8.7951444584
 H        -3.8465816514       -1.0870167687      -10.1817710098
 H        -4.1964740215        0.6087677390       -9.6537111889
 H        -3.0990025698        0.4444195638      -16.0641764114
 H        -3.9600999142       -0.1552949491      -17.5305910375
 H        -4.4800355328       -0.6950017709      -16.0239202585
 H        -3.8392208819        3.2843889817      -16.4534190416
 H        -5.1621975055        3.1401816115      -17.7190761980
 H        -3.6779381666        2.2077487056      -17.7982376081
 H       -10.7764485362       -2.6630640517      -16.0535046541
 H       -12.1794174958       -2.4611612960      -17.0572337360
 H       -11.5063690402       -1.0532462371      -16.1309064988
 H        -9.8948239542       -3.6661836259      -18.6075417348
 H        -9.9659838210       -2.6072576206      -19.9306060030
 H       -11.4121259018       -3.3015230379      -19.1570783743
 H       -14.4057761267        1.0618432440      -24.3416778639
 H       -14.9724613084        1.1544819223      -22.7600416937
 H       -15.2823560721       -0.3329091654      -23.5711601551
 H       -12.5406150218       -0.6476499393      -25.0067026131
 H       -13.4872288853       -1.8052413307      -24.0487781268
 H       -11.7292804139       -1.4818355583      -23.7412880529
 H        -7.1433547026        4.3481682069      -23.8891041315
 H        -8.0126388829        5.6257852729      -23.1146781002
 H        -8.8070077967        4.6164008420      -24.1258690545
 H        -7.0119202338        3.3943247012      -20.4760751746
 H        -6.0484456872        3.7321859593      -21.9841550089
 H        -6.8054130661        2.1547833688      -21.7206625127
 Na       -8.7515893969        1.6097881716      -19.5431551416
 Na       -0.0712506848       -1.2316694729       -6.8206332025
