232

 C        -9.3159258421        6.0184528852      -20.8265030197
 C        -9.1229089158        4.5070177210      -20.8637367439
 O        -9.4105668306        3.9926906079      -19.8485430900
 C        -8.3735929814        3.7933303792      -22.2010442668
 C        -9.2520862645        2.5567937049      -22.5585666487
 O        -9.2994591767        1.6967607676      -21.6666767169
 C       -10.1922738622        2.5808559266      -23.6983703091
 C       -10.8294634537        1.2758142494      -23.9440229831
 C       -12.2089271692        1.3610379957      -23.1404821040
 O       -12.4380439000        2.2485253855      -22.3640140097
 C       -13.1249292857       -0.0056767223      -23.0331136076
 C       -12.8228884866       -0.5574154671      -21.5971491211
 O       -12.2914918094       -1.5831387520      -21.3903140779
 C       -13.4921935993        0.1420939678      -20.3938031454
 C       -13.0765890309       -0.6526071288      -19.1501438400
 C       -11.6326574676       -0.4539958403      -18.8583703588
 O       -11.0537815369        0.5398568973      -19.2354705984
 C       -10.7998038586       -1.4773633846      -18.1113475330
 C        -9.2704837445       -0.9356932930      -17.9610617653
 O        -8.5957482648       -0.8505202143      -18.9975009494
 C        -8.6016923491       -0.4340185897      -16.6380914845
 C        -7.0571888160       -0.3483420102      -16.6263993621
 C        -6.4546716979        0.9913625089      -17.0636999432
 O        -7.0368851868        1.7847062869      -17.7639794766
 C        -5.1220709725        1.4029319812      -16.3919268915
 C        -5.3438223417        1.4814544663      -14.8582333423
 O        -6.4724358337        1.3156844227      -14.4081943533
 C        -4.0570260205        1.8386721695      -13.9926217485
 C        -4.1225717647        1.0393156024      -12.6744112834
 C        -2.7172597452        0.4723199618      -12.2431125998
 O        -2.0568563876       -0.0443396847      -13.1377488215
 C        -2.3680757550        0.3506729011      -10.7529467013
 C        -1.0849066408       -0.5490865133      -10.4513998399
 O        -0.6665941123       -0.4661840831       -9.3215711715
 C        -0.5112798881       -1.4637578863      -11.5163874487
 C         0.4601440988       -2.5455835173      -10.9060577395
 C        -0.1602930876       -3.3789815520       -9.7297439296
 O        -1.2985295011       -3.1246682327       -9.4150016271
 C         0.6124714675       -4.4653045849       -8.9312016747
 C         1.7278691960       -3.9304753292       -7.9797574611
 O         1.5152494522       -2.9125047473       -7.3555887516
 C         3.0777711890       -4.4410832922       -8.0180589189
 C         3.9929124298       -3.9442990651       -6.8928039735
 C         4.0518303579       -4.7625966468       -5.6597755413
 O         3.3007937863       -5.6535361908       -5.4398948854
 C         5.3394886339       -4.2482444886       -4.6816069233
 C         5.0212844000       -2.7355224528       -4.5529582297
 O         5.6441750150       -1.8384113001       -5.0572052101
 C         3.8499407287       -2.3448571717       -3.5152744293
 C         3.5729790021       -0.8888948225       -3.6478646421
 C         2.6676264179       -0.5041181368       -4.7867151785
 O         1.5679962375       -0.9970036474       -5.0127446813
 C         3.1104071609        0.7474244906       -5.7783444113
 C         1.8938215843        1.5729011889       -6.0664626678
 O         0.9016138795        1.0366892930       -6.6381230161
 C         1.9538551249        3.0912202223       -6.1625590239
 C         0.6263389205        3.9108922291       -5.7088218622
 C         0.0389220602        3.2117480788       -4.3769569790
 O         0.7404945768        2.4242989131       -3.7603873385
 C        -1.4010468986        3.4509836369       -3.8417489868
 C        -2.3717297163        2.4999793748       -4.7311270405
 O        -3.2222807744        3.0349332461       -5.3898105933
 C        -2.0880354505        1.0440757772       -4.8385261961
 C        -3.2999076826        0.2301573060       -5.3201300647
 C        -3.1584973865       -1.1909046731       -5.7482626468
 O        -2.1144149076       -1.7502098557       -6.0227226523
 C        -4.5009836314       -2.0183042520       -5.5883333555
 C        -4.3065060500       -2.9415479831       -4.1125125893
 O        -5.2440313189       -2.9140426777       -3.3540079265
 C        -2.9975118082       -3.6759223587       -3.9966006765
 C        -3.1979762903       -4.7220099790       -2.7948100504
 C        -2.0442188013       -4.6885427990       -1.7184833986
 O        -1.7603998212       -3.5380064562       -1.3025951912
 C        -1.2309774847       -6.0233804869       -1.4451200232
 C        -2.2411775534       -7.1165038356       -0.7443439012
 O        -3.1151902524       -7.6417023659       -1.4116467699
 C        -1.7289096571       -7.7879509885        0.6634836704
 C        -1.4409612747       -9.3357143312        0.5167639905
 C         0.0475329265       -9.5502088888        0.6429875646
 O         0.9192888619       -8.7021174495        0.8928763654
 C         0.4694248799      -11.1028844537        0.4768735110
 C        -0.3040134624      -12.0991575275       -0.5179369779
 O        -0.8504704738      -11.6829847510       -1.5161083630
 C        -0.4587002994      -13.5897363814       -0.2477387785
 C         1.9657147490      -11.1181919702        0.0622367458
 C         0.4576734777      -11.7462629190        1.8349055957
 C        -0.7729653545       -6.6287353955       -2.7832485487
 C         0.0002096897       -5.5799671157       -0.5917689316
 C        -5.7476918936       -1.2389826982       -5.3327879512
 C        -4.6389454750       -3.0921872599       -6.6798379526
 C        -1.5158111369        2.9704299458       -2.4042556066
 C        -1.8560545277        4.9223417330       -3.8898578173
 C         4.3654416225        1.5696888470       -5.2999074883
 C         3.5002085505        0.1452564427       -7.3100084164
 C         5.2306514899       -4.9748187275       -3.3622878143
 C         6.6056839866       -4.5820731570       -5.5216292044
 C        -0.3093811034       -5.2024981367       -7.9736441508
 C         1.1343281063       -5.3950959179      -10.0775150159
 C        -2.0493246163        1.7946241248      -10.2172640503
 C        -3.4905082047       -0.2249765171       -9.8917695733
 C        -4.1669705461        0.2810575658      -16.8966679972
 C        -4.6394591990        2.8189715228      -16.8326163160
 C       -11.3055842735       -1.7200525138      -16.6705599769
 C       -10.7926489165       -2.8480015867      -18.9243128235
 C       -14.5760102437        0.4659013767      -22.9281977300
 C       -12.8144522034       -1.1384967408      -24.0759898461
 C        -8.4254672068        4.8288560790      -23.2712932879
 C        -6.9691350488        3.2950023439      -21.7732834355
 H       -10.0190862164        6.2622810836      -21.5577140367
 H        -8.4148660777        6.5271337874      -21.0069568118
 H        -9.7549635097        6.2652410570      -19.8415785548
 H        -9.6658437890        2.8394858963      -24.6063999615
 H       -10.8279234904        3.3712021616      -23.4866486435
 H       -10.1621723859        0.4854910494      -23.6625656989
 H       -10.8299630748        1.0849969937      -24.9881077610
 H       -14.5669756535        0.0890367459      -20.4783403961
 H       -13.0825441048        1.1695145957      -20.2208944716
 H       -13.4019390218       -1.6794022655      -19.3767355674
 H       -13.6929721958       -0.3321097760      -18.3227448788
 H        -8.9815452326       -0.8662961213      -15.7460708835
 H        -9.0830446802        0.5441879690      -16.6336186442
 H        -6.7787282623       -1.1064869103      -17.4681216776
 H        -6.5697251604       -0.5768355522      -15.6776894745
 H        -4.0022423854        2.9393223320      -13.8404917337
 H        -3.1862875975        1.5575843357      -14.5536515140
 H        -4.7738774814        0.2146894958      -12.7016986863
 H        -4.6332062759        1.5897155150      -11.8503091476
 H         0.1635375421       -0.8496829334      -12.0730437756
 H        -1.3910048872       -1.9198266665      -12.0120387522
 H         1.4040637701       -2.0779979059      -10.6187764380
 H         0.7475632878       -3.2967492930      -11.6876899518
 H         3.5199625653       -4.1683376345       -8.8386231228
 H         3.1675478487       -5.5923648929       -8.1369711867
 H         3.4721885806       -3.0259672904       -6.6564263737
 H         5.0455016280       -3.5821528158       -7.1734348565
 H         4.1500417901       -2.5601541024       -2.5089192221
 H         2.9348399450       -2.9304952374       -3.6856260888
 H         4.5531262232       -0.3966164333       -3.6733848613
 H         3.1518314620       -0.4071245915       -2.7242888470
 H         1.9691257515        3.1026226263       -7.2048399614
 H         2.9175963649        3.3326386693       -5.6639484359
 H        -0.1545437846        3.9751460973       -6.3835742212
 H         0.9981905203        4.8717039235       -5.2830855202
 H        -1.7777921539        0.6688564103       -3.8977575592
 H        -1.2725509581        0.8144576360       -5.5595393533
 H        -3.7233714614        0.7787979685       -6.1853843437
 H        -4.0781958521        0.1679340191       -4.5201095515
 H        -2.2761713045       -2.8587763348       -3.8008184487
 H        -2.7824633627       -4.2428050200       -4.9478109317
 H        -3.5422172365       -5.6673924838       -3.2350517728
 H        -4.1153473009       -4.3420545776       -2.2863016006
 H        -2.4002406690       -7.6837795402        1.5083818511
 H        -0.8324251603       -7.2788080481        0.9302561970
 H        -1.8332078267       -9.8100760051       -0.3459745448
 H        -1.9820547040       -9.7260204649        1.3874904981
 H        -1.1296413399      -13.6978658373        0.6163409810
 H         0.4468091749      -14.1242767316        0.0794196066
 H        -0.9520503814      -13.8971174986       -1.1943933093
 H         2.2093410102      -12.0452699700       -0.3503927833
 H         2.6240452364      -10.8544047785        0.8910884360
 H         2.1111023441      -10.4010586629       -0.7300998624
 H         0.8308412834      -12.7806947421        1.8633724273
 H        -0.4748745819      -11.7556361867        2.4077506844
 H         1.2236943886      -11.2775593454        2.3942414176
 H        -0.1760398737       -7.4837833186       -2.6385469076
 H        -0.1716858673       -5.7902493865       -3.2444496566
 H        -1.6879328692       -7.0049697279       -3.2682900899
 H         0.4663778076       -4.6440573596       -0.9144802452
 H         0.8968859752       -6.2783542282       -0.6037946677
 H        -0.3118968211       -5.2909961348        0.4319397522
 H        -5.9376942681       -1.0320579429       -4.2642869260
 H        -6.6406797117       -1.7902148389       -5.6595975979
 H        -5.8854084542       -0.3356134275       -5.8165920431
 H        -5.2649257802       -3.9347396762       -6.3906078050
 H        -3.6930743713       -3.5854513725       -6.9016016039
 H        -5.0268808063       -2.6440390641       -7.5152429323
 H        -2.5048584530        2.6241910801       -2.1150160206
 H        -1.2594165270        3.7544633851       -1.6722683683
 H        -0.7890821140        2.2135449006       -2.2157491699
 H        -1.3701344695        5.5649868271       -4.7401180645
 H        -1.4981797775        5.3495327402       -2.9636286456
 H        -2.8439560602        5.3121137618       -3.9921252382
 H         4.5898087056        2.3682522917       -5.9237446535
 H         5.2496204495        0.8993580927       -5.1978494533
 H         4.1310940815        1.8718452038       -4.2850556714
 H         2.7097123611       -0.6243999038       -7.4994631774
 H         4.5023453368       -0.3004532605       -7.4039803096
 H         3.4236176835        1.0218424366       -7.9560346264
 H         5.3558418183       -4.2256625170       -2.5760458573
 H         6.0643624710       -5.6772980712       -3.1185127393
 H         4.2997418401       -5.4237402972       -3.1959885375
 H         6.7341927246       -5.6150039130       -5.4570178435
 H         7.5400368474       -4.0519454282       -5.1162932871
 H         6.5899742754       -4.2207340774       -6.5304272129
 H         0.1854538982       -6.0627100828       -7.3931055134
 H        -1.1304846180       -5.4847934556       -8.6056845576
 H        -0.6393192442       -4.5124946297       -7.1958157887
 H         1.7977468777       -6.2153740937       -9.6379223507
 H         1.6102391160       -4.8773362097      -10.8228179115
 H         0.3358944784       -6.0170843826      -10.5001840908
 H        -2.9229045032        2.3774434008      -10.2104139431
 H        -1.4242490700        2.2928727864      -10.9799657451
 H        -1.5694695689        1.8959358294       -9.1935801699
 H        -3.2596125433       -0.2232985186       -8.8317748718
 H        -3.7434212324       -1.2220512772      -10.1182404270
 H        -4.3715852333        0.4188694638      -10.0193140554
 H        -3.1497702592        0.4991442267      -16.7301627447
 H        -4.2990453088        0.1881752928      -18.0296803243
 H        -4.3836590768       -0.6512094543      -16.3124674575
 H        -4.3432739904        3.2998269079      -15.9514571382
 H        -5.4659558876        3.3345253926      -17.4133892483
 H        -3.7879528978        2.6351536579      -17.4293594932
 H       -10.8286466993       -2.6611665830      -16.3783821260
 H       -12.2638245293       -2.1234520071      -16.7467094231
 H       -11.1254271805       -0.8985769679      -15.9286769161
 H       -10.2304132716       -3.6405759545      -18.3850251703
 H       -10.3524203569       -2.6723541283      -19.9052661196
 H       -11.8763909797       -3.2183451762      -19.0075544433
 H       -15.1614592928        0.5193228537      -23.8757037527
 H       -14.6760884468        1.3783648537      -22.4442687399
 H       -15.1793950638       -0.2430566107      -22.3710134175
 H       -13.0965319224       -0.8822089540      -25.1114275921
 H       -13.6210472266       -1.8386214325      -23.8359283377
 H       -11.8115107140       -1.5355058834      -23.8956351992
 H        -8.2905101210        4.3959590086      -24.2611997302
 H        -7.6157905403        5.5941325526      -23.2073858476
 H        -9.3516746105        5.5132674133      -23.1956926397
 H        -6.9936591445        2.3250766511      -21.3180686932
 H        -6.4363233807        4.0857558676      -21.1649683092
 H        -6.3916553663        3.2865041728      -22.6589133249
 Na       -8.9068383126        1.4978226121      -19.4330729063
 Na       -0.0740424744       -0.9706491694       -6.9098909859
