232

 C       -10.8567353303        5.5844829141      -20.6877919923
 C        -9.6809761338        4.5624310935      -20.6544644985
 O        -9.3736021820        3.9135454915      -19.6397828330
 C        -8.8908267413        4.0734405130      -22.0256420517
 C        -9.5304723602        2.6378507846      -22.3825905571
 O        -9.2781243748        1.6453630062      -21.7470660815
 C       -10.3085623783        2.5068504861      -23.7014994023
 C       -11.0910790775        1.2690660801      -23.9084692173
 C       -12.5201037049        1.3961646872      -23.1920931584
 O       -12.8867788889        2.5135145281      -22.8699503684
 C       -13.3972941128        0.0842334109      -23.0538408418
 C       -13.2026357092       -0.3903195267      -21.4210075327
 O       -12.4826524928       -1.3026970752      -21.2327376121
 C       -13.8605648089        0.1957768050      -20.1581714678
 C       -13.2861403000       -0.3735041083      -18.9057320996
 C       -11.7829010127       -0.2516512553      -18.9188468317
 O       -11.2141454346        0.6548496384      -19.5174254986
 C       -11.0186564145       -1.3460798942      -18.0979477294
 C        -9.4789864358       -1.0634786618      -18.0845049578
 O        -8.9335478317       -0.9293877344      -19.1789034520
 C        -8.6490802988       -0.9661565973      -16.8482556728
 C        -7.1710792607       -0.7096817627      -16.9599565670
 C        -6.9023476348        0.8480185748      -17.0031072112
 O        -7.6037715095        1.6150123126      -17.6206766418
 C        -5.5520648263        1.4605353168      -16.4485967841
 C        -5.1983675273        0.8090681208      -15.1137267596
 O        -6.0204047944        0.0653872019      -14.5880555843
 C        -3.8067128081        0.9854945257      -14.5365416048
 C        -3.8514105919        0.6090319297      -13.0139237174
 C        -2.5805421989        0.7109734079      -12.1276015973
 O        -1.5178367374        1.2342098388      -12.4603055430
 C        -2.7579894147        0.1602693991      -10.6835778204
 C        -1.4000631721       -0.3675407961      -10.1528961844
 O        -0.8796060452        0.0645956046       -9.1710818506
 C        -0.6568406833       -1.3181342809      -11.1127086137
 C         0.3921443226       -2.2680895620      -10.4426580839
 C        -0.2151807653       -3.5002155156       -9.8001929859
 O        -1.3783850942       -3.8034905905       -9.9282569760
 C         0.8295973003       -4.5452551552       -9.0848221129
 C         1.8791144590       -3.8241093434       -8.1632249226
 O         1.6374770879       -2.6984721133       -7.8336139396
 C         3.1536508682       -4.5805071805       -7.6518933806
 C         3.8952596662       -3.8207933855       -6.6190018469
 C         4.2672145735       -4.7441727115       -5.4336322832
 O         3.9217632931       -5.9063790431       -5.4207481822
 C         5.0737280619       -4.0228196188       -4.1956518443
 C         4.4973881195       -2.5894699323       -4.1007340719
 O         5.1475412532       -1.6848316867       -4.6536077312
 C         3.2368593364       -2.2979188234       -3.2805730414
 C         3.0402900422       -0.7203272436       -3.2609239672
 C         2.5431244714       -0.3750904329       -4.6718490191
 O         1.5207527251       -0.9668981565       -5.0342300213
 C         3.2735386126        0.6245734130       -5.6513722099
 C         2.2644965026        1.7176064399       -6.1673776952
 O         1.3933719342        1.4353726910       -6.9806630382
 C         2.5568325010        3.3110049839       -5.8199794271
 C         1.1794118829        3.7967955745       -5.2631231454
 C         0.5995329163        2.8234865055       -4.1957311936
 O         1.2572265812        1.8499128274       -3.9467696261
 C        -0.8240297405        3.0005530189       -3.6586551030
 C        -1.8343128574        2.1726504156       -4.6902837108
 O        -2.5523975718        2.7851817145       -5.4570075201
 C        -1.9234056953        0.7178968153       -4.6121843388
 C        -3.1625919884        0.0327928563       -5.2769355881
 C        -2.7134702985       -1.3266658250       -5.8884824122
 O        -1.5780876281       -1.4778763789       -6.3544797442
 C        -3.7157946821       -2.5554276804       -5.8859175514
 C        -3.8914418272       -2.8631066493       -4.3398822435
 O        -4.9633492890       -2.5246017680       -3.8307927074
 C        -2.9044490881       -3.7480197040       -3.6263413438
 C        -3.3442696576       -4.3838952683       -2.2949809141
 C        -2.1108739174       -4.5171820403       -1.3573802856
 O        -1.9176216520       -3.4855733327       -0.6206300808
 C        -1.3279557391       -5.8071277534       -1.0656500546
 C        -2.2333963300       -6.9560908875       -0.6633777210
 O        -3.3386471527       -7.1429866917       -1.1052837213
 C        -1.7480881032       -7.7651156196        0.6230855705
 C        -1.4587077346       -9.3300382707        0.4257936742
 C         0.0163893306       -9.5144680521       -0.2241138737
 O         0.4374711723       -8.7213677930       -1.1063119011
 C         0.7615266124      -10.8573061546        0.1281606982
 C         0.2195394136      -11.9439409813       -0.9275762251
 O        -0.1247181707      -11.5624915076       -2.0297840686
 C         0.5737428081      -13.3776026465       -0.6346885586
 C         2.3591547160      -10.7360436029       -0.0579210955
 C         0.5108984163      -11.3799687758        1.5676356283
 C        -0.8019930178       -6.2952383410       -2.5227389779
 C        -0.0899144025       -5.4555353588       -0.1607632066
 C        -5.0471624892       -2.1511805641       -6.6007134620
 C        -3.1148968311       -3.6788414968       -6.6561038347
 C        -1.0406994273        2.4547391485       -2.1935689911
 C        -1.3516420364        4.4208348680       -3.7852141473
 C         4.5270637648        1.3452508671       -5.0062686316
 C         3.7410469653       -0.0157714079       -6.9586337951
 C         4.9601365613       -4.7690564533       -2.8728799881
 C         6.5929764075       -3.9853634744       -4.6315138271
 C        -0.0484382748       -5.3612842385       -8.0875599518
 C         1.3998344021       -5.4686630612      -10.1269447333
 C        -3.2943691239        1.3878024453       -9.8083132544
 C        -3.7432778163       -1.0301572497      -10.4649653176
 C        -4.4684428002        1.2565184815      -17.4972463369
 C        -5.8251814999        3.0141292003      -16.1328989675
 C       -11.6624436648       -1.3274134347      -16.7553075237
 C       -11.2414486958       -2.7667801914      -18.8505569215
 C       -14.9023945136        0.3591752008      -23.1305638397
 C       -12.9010130097       -1.0185874921      -23.9865121891
 C        -8.9460328087        5.1651355070      -23.1312357723
 C        -7.3424491244        3.5898490308      -21.6156961428
 H       -11.5553602567        5.2939842974      -21.4359500885
 H       -10.4558312475        6.4963193689      -20.8686332493
 H       -11.2762287585        5.5960473691      -19.6838520301
 H        -9.5532377308        2.4155115760      -24.4339684596
 H       -10.8354490644        3.4168252829      -23.8640090434
 H       -10.5488281758        0.4092954290      -23.6442116936
 H       -11.2720312231        1.2709676701      -24.9691231686
 H       -14.9565512134        0.0249619669      -20.1023911887
 H       -13.6871360962        1.2644955216      -20.1906438965
 H       -13.6967254637       -1.4069750713      -18.8194294741
 H       -13.8157524368        0.1078678954      -18.0673732826
 H        -8.7971702122       -1.8534558613      -16.2771909335
 H        -9.0629606135       -0.1468545353      -16.1416835971
 H        -6.5125526481       -1.1760341238      -17.7431940543
 H        -6.6742343925       -1.0730873512      -16.0248523848
 H        -3.4238310361        2.0070101632      -14.6097237872
 H        -3.1762651862        0.3217744898      -15.1630047490
 H        -4.0420509111       -0.4508616786      -12.9823399256
 H        -4.5882664817        1.2675949832      -12.6663544700
 H        -0.2088803671       -0.6116314937      -11.8712829787
 H        -1.3454068581       -1.8328108205      -11.7037368013
 H         0.8981803224       -1.6704869520       -9.5935275991
 H         1.1514160214       -2.5175990842      -11.1752536160
 H         3.5727869947       -4.7196202809       -8.5367893205
 H         2.8691951167       -5.5301271309       -7.1736499918
 H         3.2188514060       -2.9122726265       -6.3485643861
 H         4.8190507891       -3.4669227006       -6.9688333441
 H         3.5413973870       -2.4928705304       -2.2499895704
 H         2.2194406541       -2.6369948690       -3.3792779651
 H         3.9815462343       -0.2638660788       -3.0527600493
 H         2.1533474173       -0.5841493558       -2.6310405713
 H         2.7124465747        3.7850971899       -6.7601827798
 H         3.4097345770        3.5759588613       -5.1469511347
 H         0.3793979813        4.0669887876       -5.9801160811
 H         1.2800166430        4.7605216543       -4.7921571184
 H        -1.8361267472        0.3131049733       -3.6038844696
 H        -1.1336995002        0.2749506079       -5.1642134879
 H        -3.6540864393        0.5828902849       -6.1256183512
 H        -3.9785834587       -0.2509701416       -4.5575804939
 H        -2.0234719913       -3.0624944502       -3.4341297891
 H        -2.3909494694       -4.3576474893       -4.3668170706
 H        -3.8102286678       -5.3712849363       -2.4717141749
 H        -4.0582093804       -3.6877001668       -1.8533050647
 H        -2.6064474397       -7.8036360654        1.2898545256
 H        -0.9523787975       -7.2844002156        1.1440506891
 H        -2.2256083703       -9.8582085233       -0.2343029071
 H        -1.6494530269       -9.8091796910        1.3780659800
 H        -0.2659565344      -13.8546586292       -0.1806082559
 H         1.5429512276      -13.4363204883       -0.0870984059
 H         0.7989859902      -13.9054022029       -1.5674365940
 H         2.6625068050       -9.8267821195        0.4895665275
 H         2.5971196028      -10.6222512460       -1.1337186847
 H         2.9284932709      -11.6197316699        0.2900857746
 H         1.1843172647      -12.1668862041        1.8730248021
 H        -0.5531751770      -11.7235064795        1.6924180396
 H         0.6995267621      -10.5274623287        2.2578917054
 H        -0.0080615453       -6.9337375173       -2.1973824898
 H        -0.4760458511       -5.5754540223       -3.2307296699
 H        -1.6779056686       -6.8237086152       -3.0346686303
 H         0.2756519771       -4.4755807897       -0.4537081572
 H         0.7539546941       -6.1507710488       -0.0884884294
 H        -0.3239719775       -5.3739937448        0.8831101650
 H        -5.4583910707       -1.1433346796       -6.4939406415
 H        -5.9055397420       -2.7683206267       -6.2289841956
 H        -5.0050673628       -2.3056837534       -7.6447644792
 H        -3.7704870584       -4.4920096597       -6.6975120624
 H        -2.1298050624       -3.9307315656       -6.3595706654
 H        -2.9364284661       -3.4946888420       -7.6682885497
 H        -2.0490944485        2.5896181568       -1.7907620168
 H        -0.2605659404        2.9777640355       -1.6198624163
 H        -0.7981080419        1.3685228705       -2.1059693484
 H        -1.4305852496        4.8299825709       -4.8742307457
 H        -0.6709630237        5.1775223890       -3.4440428297
 H        -2.3018908217        4.4897542132       -3.2520119329
 H         4.8804123775        2.1419223036       -5.6962378955
 H         5.2752823382        0.5314865803       -4.9040331684
 H         4.4003365094        1.7921726221       -4.0468330040
 H         2.8595725350       -0.1250354668       -7.6346414049
 H         4.1782776900       -0.9296817247       -6.6499817253
 H         4.4747605210        0.5829800664       -7.4175903933
 H         3.8987488582       -4.5791901240       -2.6199162871
 H         5.6419174422       -4.3048914191       -2.1434293013
 H         5.0848944062       -5.8237555903       -3.0026884738
 H         7.0629043308       -4.8584028144       -4.2950458339
 H         7.1258335911       -3.0940056118       -4.1497068128
 H         6.6839085490       -3.9872898859       -5.7142130091
 H         0.4247692819       -6.2471976670       -7.6055767238
 H        -1.0237346147       -5.6437680551       -8.5277909787
 H        -0.4066359060       -4.5892820577       -7.3666998487
 H         2.1052780321       -6.2623410013       -9.7262376228
 H         1.9837387855       -4.9936576929      -10.8415685450
 H         0.6362068920       -6.0276621555      -10.6584603164
 H        -4.3687776666        1.5265577243       -9.8493792882
 H        -2.7927260234        2.3033518988      -10.1935405942
 H        -2.9245683741        1.3027372546       -8.7667332909
 H        -3.8739134213       -1.1885687226       -9.3457414088
 H        -3.4885127682       -1.9049966681      -11.0167007031
 H        -4.7314606847       -0.6479568916      -10.8598581892
 H        -3.6051017759        1.7711090272      -17.0605841821
 H        -4.7345178121        1.7484855009      -18.4456151497
 H        -4.2977162801        0.2248915292      -17.8437429812
 H        -4.9403858303        3.4586261806      -15.6784953061
 H        -6.8014430886        3.1301229127      -15.5602196440
 H        -5.9867250891        3.3978156705      -17.1094136560
 H       -11.2717836107       -2.1069598100      -16.1399451133
 H       -12.7424965036       -1.4508718628      -16.8096067430
 H       -11.5465548665       -0.3071685242      -16.2286560408
 H       -11.0941066716       -3.5978031136      -18.1764910719
 H       -10.5704857386       -2.7691923641      -19.6102478968
 H       -12.3118038317       -2.9044323989      -19.2643609054
 H       -15.1565747583        1.0072976175      -23.9870039914
 H       -15.2449435157        0.8618159038      -22.2326812967
 H       -15.4124040821       -0.5847233993      -23.2183209018
 H       -13.0755093463       -0.6805299805      -24.9978337423
 H       -13.4812999328       -1.9912175878      -23.7154865297
 H       -11.8254760636       -1.1844122755      -23.9180850593
 H        -8.8037612341        4.7318987007      -24.1157504356
 H        -8.1677058265        5.9369198119      -22.8353529237
 H        -9.9714686104        5.6069311464      -23.1981673238
 H        -7.0146518256        3.7018570716      -20.5881162283
 H        -6.6977128726        4.2968866882      -22.1614722237
 H        -7.0706580031        2.6269689528      -22.0066523657
 Na       -9.2138148819        1.5472932979      -19.4020910212
 Na        0.5351352030       -0.8063174962       -7.4189198652
