232

 C       -10.7581012074        5.4590863610      -20.9407842864
 C        -9.7207623557        4.4636339738      -20.6669088459
 O        -9.5614525675        3.9621323397      -19.5507873707
 C        -8.9950162806        4.0596867651      -21.9451506878
 C        -9.5967184001        2.6919855964      -22.3275679260
 O        -9.4373915901        1.6419328673      -21.6614253205
 C       -10.3186231023        2.6438264379      -23.7004895248
 C       -11.1176193555        1.2724043228      -23.8493192017
 C       -12.5467676185        1.4425027128      -23.1871374950
 O       -12.9499539188        2.5509783203      -22.8776661327
 C       -13.3803889881        0.0911769793      -22.9191347428
 C       -13.1997783054       -0.4368237059      -21.4670708642
 O       -12.4507058684       -1.4024437893      -21.2123021389
 C       -13.9496310996        0.2653363869      -20.3172417029
 C       -13.3289234451       -0.3340325390      -18.9805042699
 C       -11.8464268528       -0.2653464601      -18.9936594920
 O       -11.2929277464        0.6901841730      -19.4652605314
 C       -11.0305915597       -1.3535719869      -18.1096513360
 C        -9.4477576546       -1.0824805801      -18.1623627114
 O        -8.9088494700       -1.0145610782      -19.2945856484
 C        -8.7120417757       -0.9724120088      -16.8146149029
 C        -7.2565806974       -0.6834137393      -17.0098725544
 C        -6.8646993815        0.8430948381      -17.1033676623
 O        -7.6707252068        1.5786801405      -17.5937183553
 C        -5.5505378072        1.4653825008      -16.4854675270
 C        -5.1865960724        0.6310089469      -15.1247879150
 O        -6.0274535691       -0.0295624744      -14.5467587504
 C        -3.8238974036        1.0062890735      -14.4215933314
 C        -3.9170999251        0.5098247887      -12.9904085368
 C        -2.6785628064        0.6498550650      -12.1150993367
 O        -1.6352115214        1.2099130142      -12.4267044132
 C        -2.8252274184        0.1277332845      -10.6828921657
 C        -1.4218600922       -0.3580554482      -10.2014701561
 O        -0.9989991353        0.0236770086       -9.1396262439
 C        -0.5826138799       -1.3796056331      -11.1108825986
 C         0.4481551124       -2.1156993188      -10.3186531763
 C        -0.1080922833       -3.4708049738       -9.7674087234
 O        -1.3162275588       -3.6306639312       -9.8741010469
 C         0.7752155538       -4.4911960974       -9.0598127485
 C         1.7972254284       -3.7127285811       -8.2009690575
 O         1.6634081600       -2.5471535525       -7.8444101583
 C         3.0370682554       -4.5105157300       -7.6327298677
 C         3.8613381758       -3.8087565283       -6.5427453443
 C         4.2576917247       -4.6950532068       -5.3336296265
 O         3.8794409316       -5.8706933636       -5.2132368297
 C         5.0434830331       -4.0646775687       -4.1893734250
 C         4.5867093698       -2.5335197375       -4.0732179147
 O         5.0271543957       -1.7215273455       -4.9168329690
 C         3.4576139502       -2.2504582807       -3.1135291406
 C         2.9604158983       -0.6985433702       -3.3038481242
 C         2.4942608313       -0.3904669333       -4.7158732865
 O         1.4582424319       -0.8383894991       -5.1460589399
 C         3.3690604762        0.5947564120       -5.7161965046
 C         2.3007662196        1.6708078728       -6.0902629312
 O         1.4192812911        1.3571155423       -6.8942797400
 C         2.3490567899        3.2154841335       -5.8400651125
 C         1.0936415972        3.6741295240       -5.1869997169
 C         0.5859856013        2.6709405248       -4.1778797455
 O         1.3191410131        1.6829478437       -3.9625409002
 C        -0.8710192522        2.9637495093       -3.6299835802
 C        -1.8156853781        2.1941055455       -4.6383600536
 O        -2.3747433708        2.9087694881       -5.4585527769
 C        -1.8746027717        0.6153813086       -4.4530498053
 C        -2.9771526210       -0.0960538367       -5.3482430976
 C        -2.5914907692       -1.3996104345       -6.0214430135
 O        -1.5531947167       -1.5429985991       -6.6040478793
 C        -3.6119132558       -2.6450013021       -5.9835766743
 C        -3.9873282613       -2.9827236023       -4.4453054809
 O        -4.9507542661       -2.5286359409       -3.9158871116
 C        -2.8497733281       -3.7249950302       -3.5897840328
 C        -3.2866411945       -4.2345719093       -2.2605820197
 C        -2.1207602218       -4.4098515166       -1.1892353751
 O        -1.8607289260       -3.5186390478       -0.4399237257
 C        -1.2865705605       -5.6941119440       -1.1265877434
 C        -2.2540491059       -6.9430067472       -0.5223870405
 O        -3.3159429990       -7.1607324404       -1.0975585015
 C        -1.8437837847       -7.7961899868        0.6769508113
 C        -1.3519966104       -9.2138268116        0.3594358549
 C        -0.0352093954       -9.5815531142       -0.2970186993
 O         0.4431950444       -8.8974884967       -1.1574840173
 C         0.7522336930      -10.8497733747        0.0651205908
 C         0.4348430433      -11.9376126117       -1.1084011309
 O        -0.1955862566      -11.5413630769       -2.0576655824
 C         0.6490732870      -13.3670736917       -0.6514732638
 C         2.3344887798      -10.6143895774       -0.0539319522
 C         0.4935797861      -11.3383641066        1.4924616068
 C        -0.6895333445       -6.1963361119       -2.5829994072
 C        -0.1316758640       -5.3517802138       -0.2012541247
 C        -4.9305035305       -2.1500208625       -6.5793530968
 C        -3.0013696002       -3.8243602115       -6.7722389191
 C        -1.0682330473        2.5596889751       -2.1667987859
 C        -1.2543680600        4.4694113390       -3.7214634875
 C         4.4582332589        1.3028464106       -4.8763691293
 C         3.8882141440       -0.0369803100       -7.0367814355
 C         4.8456685246       -4.8397169894       -2.8900068510
 C         6.6029009593       -4.0618455755       -4.5822367775
 C        -0.0517126269       -5.3895296628       -8.0754306273
 C         1.5686223747       -5.4550694366      -10.1180929405
 C        -3.1449035510        1.3059073786       -9.7569791112
 C        -3.8301751835       -1.0793217144      -10.5995409903
 C        -4.4319958708        1.3438124877      -17.5778177404
 C        -5.8952424535        2.8818359482      -16.0085336938
 C       -11.5443482264       -1.3401825537      -16.5724853209
 C       -11.2588012543       -2.6851100545      -18.8127663753
 C       -14.9285814576        0.5242266569      -23.1946637151
 C       -12.9232527734       -1.0124573233      -23.8943173121
 C        -9.0478628559        5.0787923052      -23.0297436954
 C        -7.5759256306        3.7405319985      -21.6257036156
 H       -11.4695644345        4.8778947359      -21.5190614231
 H       -10.3825093182        6.3629391388      -21.4834096735
 H       -11.2264919873        5.7065540381      -19.9717252002
 H        -9.4880647878        2.7256720120      -24.4709421092
 H       -10.9577797351        3.5090931729      -23.7586574385
 H       -10.7257358320        0.5042462566      -23.2156928101
 H       -11.1461562976        0.9773832389      -24.8670262190
 H       -15.0112354088        0.1763337121      -20.3544943464
 H       -13.7337000045        1.3267666214      -20.3826232883
 H       -13.6667069741       -1.3907605008      -18.7993882337
 H       -13.7940864533        0.1932524066      -18.1374551925
 H        -8.7823443952       -2.0176982881      -16.4489215006
 H        -9.1860348892       -0.3297089835      -15.9853267999
 H        -6.9130218247       -1.0764442224      -18.0267025288
 H        -6.5870139210       -1.1789551220      -16.3584282784
 H        -3.5609361747        2.1142993312      -14.4598746435
 H        -3.0277379739        0.4704037652      -14.8919515514
 H        -4.2249346778       -0.5113721776      -13.0345879332
 H        -4.6313240589        1.2086468062      -12.5630148393
 H        -0.1213456280       -0.8763268204      -11.9696014580
 H        -1.2622184888       -2.0501323125      -11.6566817614
 H         0.7902520438       -1.4225085494       -9.5250426332
 H         1.2768705474       -2.1882346338      -11.0483741790
 H         3.5591306558       -4.6987405344       -8.5401638166
 H         2.6284013385       -5.4810236486       -7.1952624768
 H         3.3089576559       -2.9260873087       -6.1905325566
 H         4.8259448693       -3.4489365590       -6.9915363866
 H         3.5013504378       -2.4824968975       -2.0501513693
 H         2.5039408410       -2.6882399286       -3.4926023644
 H         3.7250879736        0.0031914294       -3.0967814181
 H         2.0225253267       -0.6668741872       -2.7847469327
 H         2.5494602092        3.7437834200       -6.7581112536
 H         3.1805809604        3.5073567373       -5.1197260407
 H         0.2564594250        4.0384544298       -5.7716972740
 H         1.3530578707        4.6529208569       -4.6401187341
 H        -1.9944331744        0.2736425186       -3.4534231326
 H        -0.9159949269        0.2218642172       -4.7975354930
 H        -3.3186433658        0.5602133922       -6.1709763325
 H        -3.9110626703       -0.3009039296       -4.7267163703
 H        -1.9337365653       -3.0929540854       -3.6397368754
 H        -2.4542303937       -4.5066268536       -4.2660832248
 H        -3.8042897984       -5.1729691630       -2.4799455395
 H        -4.0179209855       -3.4949198375       -1.9237002805
 H        -2.7740594312       -8.0213451144        1.2529257694
 H        -1.1293762810       -7.2258773326        1.3302233551
 H        -2.1658977796       -9.8527556666       -0.1209280912
 H        -1.3825203022       -9.6823174217        1.4128718963
 H        -0.3081759633      -13.6033456170       -0.1466621470
 H         1.5782442303      -13.4796469992       -0.0908346586
 H         0.7866747465      -14.0957519087       -1.4857124704
 H         2.5352201048       -9.5753991417        0.0325831517
 H         2.7244640935      -10.9852228538       -1.0171471441
 H         2.8677204129      -11.1767156776        0.7021988090
 H         1.0476720198      -12.2535178219        1.7525299091
 H        -0.5737758834      -11.5278424677        1.6643393405
 H         0.8929737075      -10.5972976245        2.1493040058
 H         0.0515674753       -6.9514601925       -2.3443140781
 H        -0.1552337219       -5.3603832698       -3.1770858143
 H        -1.5317197711       -6.5226948188       -3.1628568724
 H         0.2597718247       -4.3316095859       -0.3029203568
 H         0.7438339004       -6.0753645283       -0.0900569323
 H        -0.4789388272       -5.3633298710        0.8643777124
 H        -5.1418028273       -1.1046142023       -6.4041709210
 H        -5.7989083108       -2.5813232349       -6.1170378786
 H        -5.0021180495       -2.3368441695       -7.6104520739
 H        -3.8225343977       -4.5284024902       -6.8916875552
 H        -2.2050002979       -4.2929273369       -6.2359756522
 H        -2.5993597446       -3.7011735989       -7.7218299150
 H        -2.0622678159        2.7079375401       -1.7381989630
 H        -0.2687318310        3.0835231427       -1.6047138921
 H        -0.8489025960        1.5186809566       -2.0912577878
 H        -1.2901998515        4.8903864957       -4.7297185377
 H        -0.5538038748        5.2279948936       -3.2874384430
 H        -2.2374344912        4.5201936458       -3.2729412637
 H         4.9236201806        2.0575088197       -5.3935483051
 H         5.1741910392        0.5585223838       -4.5473273146
 H         4.0335312862        1.7197779280       -3.9246982497
 H         3.0629418331       -0.5824014807       -7.5024412656
 H         4.7634922735       -0.6351740899       -6.7234550612
 H         4.1855469121        0.7452076628       -7.7599475684
 H         4.0577710327       -4.3138799024       -2.3822141678
 H         5.7709361823       -4.8447659532       -2.3195822306
 H         4.4291766148       -5.7715216014       -3.1027504991
 H         7.2396982387       -4.8134011634       -4.1342361802
 H         6.9845472303       -3.0436501623       -4.2883085720
 H         6.5667006721       -4.0525544726       -5.6781881061
 H         0.7078592533       -6.0690692499       -7.5447087723
 H        -0.8043218502       -5.9631236906       -8.5608627596
 H        -0.6440771589       -4.7891035008       -7.3945156632
 H         2.3030605204       -6.1726422685       -9.7798869624
 H         2.0748207585       -4.8588817857      -10.8026784015
 H         0.8828449321       -6.0540942115      -10.6595430085
 H        -4.0948306047        1.7435963587       -9.8944315980
 H        -2.3801703656        2.0689187142       -9.9854971619
 H        -2.9473323820        1.0345416296       -8.6746650615
 H        -3.8713294798       -1.4487258197       -9.6174543151
 H        -3.4234114588       -1.8305397439      -11.2742251183
 H        -4.8180319005       -0.8205914931      -10.9559751469
 H        -3.4685393191        1.1987787367      -17.2010599912
 H        -4.4366563734        2.1929222910      -18.3223753330
 H        -4.8044779263        0.5767867481      -18.2917122441
 H        -4.9603455187        3.2813076755      -15.8378682599
 H        -6.5024803805        2.8491189933      -15.1125327947
 H        -6.4418759051        3.4049859094      -16.7757778812
 H       -11.2311550754       -2.3065447539      -15.9781531398
 H       -12.6099530425       -1.2765119004      -16.4466741373
 H       -11.1382418045       -0.4648810304      -16.0891603491
 H       -11.4237009942       -3.4819549202      -18.1608577562
 H       -10.3421579016       -2.7930502612      -19.3462334069
 H       -12.0748822834       -2.7366759182      -19.4888648768
 H       -14.9733794083        0.9474794388      -24.2308970295
 H       -15.3486615553        1.1758094935      -22.5005524831
 H       -15.4730475753       -0.4227615059      -23.1879766036
 H       -13.1411456464       -0.7211641354      -24.9439100379
 H       -13.4428211985       -1.8818727379      -23.6124232913
 H       -11.8273050790       -1.1351453618      -23.8893808745
 H        -8.6330873516        4.6860908996      -23.9489820188
 H        -8.5212021610        5.9450524692      -22.6791424725
 H       -10.1530621775        5.2981290529      -23.2581584073
 H        -7.3095006520        3.1512813902      -20.7853601210
 H        -7.0692673778        4.7582560366      -21.4998231413
 H        -7.1233859877        3.3517142863      -22.5254845073
 Na       -9.0868847809        1.5736633590      -19.5469145361
 Na        0.6869682345       -0.6917392663       -7.3812381762
