232

 C       -11.2062227851        5.5077801325      -20.8316172017
 C       -10.2325445120        4.3753596957      -20.6984235376
 O       -10.2431248784        3.7016677692      -19.7044974484
 C        -9.2173882611        4.0505853747      -21.9098614555
 C        -9.7290162401        2.7331367921      -22.5031031350
 O        -9.5256886804        1.7139511893      -21.8641479381
 C       -10.4203015923        2.5047882391      -23.9646675526
 C       -11.3699697317        1.2525110032      -24.0662862851
 C       -12.6365942075        1.3666148299      -23.1157998259
 O       -12.8352180472        2.3328842349      -22.4065633499
 C       -13.6175199332        0.0908638763      -23.0731980465
 C       -13.1973809281       -0.3143955775      -21.6748015613
 O       -12.5273129616       -1.3388215706      -21.4933274803
 C       -13.7977109783        0.4175628568      -20.4242940623
 C       -13.3307776205       -0.2008439632      -19.1022097876
 C       -11.8206309671       -0.0484494774      -18.7956821702
 O       -11.3048488960        1.0223096122      -18.8966631903
 C       -11.1613894081       -1.2415543670      -18.0963518235
 C        -9.5826268906       -0.9937353660      -18.2983782278
 O        -9.1559849272       -0.7595178241      -19.4353838895
 C        -8.5585932486       -1.2383438100      -17.1628429390
 C        -7.1469599063       -0.6340442381      -17.5844950720
 C        -6.9415030974        0.9428793687      -17.2478851779
 O        -7.6991646278        1.7997000156      -17.7203721616
 C        -5.7559111596        1.3729391613      -16.3728535175
 C        -5.4392164439        0.4304908947      -15.1259925783
 O        -6.0799384530       -0.5648812704      -14.9201132142
 C        -4.1523420994        0.7995416007      -14.2595414232
 C        -4.1722841442        0.2048337937      -12.8353391421
 C        -2.8527113497        0.4202199523      -12.0911246645
 O        -1.9155086392        0.9980887123      -12.5673685698
 C        -2.8244265727       -0.0867934709      -10.6009508696
 C        -1.3536858317       -0.4550936274      -10.2376213475
 O        -0.9712570430       -0.1672137300       -9.0869114618
 C        -0.5041892588       -1.1821915804      -11.2403689252
 C         0.4633093213       -2.1233508848      -10.6652406213
 C        -0.0890784050       -3.1955741797       -9.7242127433
 O        -1.2588064309       -3.1974778136       -9.4148930990
 C         0.9370224757       -4.3198111026       -9.2011522227
 C         1.8826784697       -3.6735451883       -8.1767659413
 O         1.8993082411       -2.4697674108       -7.8988506613
 C         2.9462356713       -4.6187342210       -7.5001048726
 C         3.8948619270       -4.0504082187       -6.4121514031
 C         3.9361832097       -4.7675355448       -5.0029726554
 O         3.5099170424       -5.8194954251       -4.7207140135
 C         4.9514823609       -4.0456197782       -3.9542393681
 C         4.7024236576       -2.5315879768       -3.9102430312
 O         5.1767080658       -1.7323262825       -4.7012431723
 C         3.7007932762       -2.0033052722       -2.9513251492
 C         2.9567594604       -0.6564622165       -3.3783401515
 C         2.7490652605       -0.4932185155       -4.8171472824
 O         1.9499943165       -1.1812362995       -5.4279963925
 C         3.4121434858        0.7099507486       -5.5791223814
 C         2.3587704353        1.7774114795       -6.0305114311
 O         1.6454195674        1.5362654266       -7.0147940801
 C         2.3625185072        3.2063501798       -5.4739230666
 C         1.0829945673        3.7539985645       -4.9832550912
 C         0.5205417951        2.6742508235       -4.0282011818
 O         1.3133951839        1.7160091245       -3.7985056781
 C        -0.9152302777        2.7163373546       -3.4008149699
 C        -1.6459014822        1.9351899358       -4.6370180726
 O        -2.2136709977        2.5763556198       -5.4521063680
 C        -1.5616060188        0.3957377395       -4.6011926901
 C        -2.4751751934       -0.1879774133       -5.7213433204
 C        -2.2038382388       -1.6726983168       -6.0036663475
 O        -1.1384106482       -2.0489619284       -6.4220487953
 C        -3.3807621036       -2.6636627041       -5.9494984221
 C        -3.7244875927       -2.9353704815       -4.4875063048
 O        -4.8061044390       -2.7879319898       -3.9775076866
 C        -2.5313112971       -3.4781524010       -3.6042174345
 C        -3.0439533653       -4.0687790293       -2.2567925701
 C        -2.0475934073       -4.2641939540       -1.0383891513
 O        -1.9883690159       -3.5220166930       -0.1468536581
 C        -1.0758073549       -5.5272817860       -1.1137297822
 C        -2.0016219983       -6.7680925669       -0.5864697330
 O        -2.9735518039       -7.0675822654       -1.2766507342
 C        -1.7117839906       -7.7240839540        0.5551538717
 C        -1.5505041125       -9.2154611035        0.0799656176
 C        -0.1075486723       -9.4106055787       -0.4753960917
 O         0.3322560823       -8.5079910424       -1.1027435888
 C         0.6858229492      -10.6791233783       -0.0888627189
 C         0.2794520470      -11.8483364844       -1.2186192033
 O        -0.2063936401      -11.6766434742       -2.2925317493
 C         1.0399595144      -13.1961695110       -0.9187814749
 C         2.1695136956      -10.3234952258       -0.2970457562
 C         0.3400250557      -11.2112400251        1.3529227324
 C        -0.6711161570       -5.8814771814       -2.5571425564
 C         0.1289258668       -5.1082246308       -0.2786424725
 C        -4.6431963007       -2.0797193045       -6.5806448275
 C        -2.8719397565       -3.9652109531       -6.6402692461
 C        -1.1081203753        2.0442395144       -1.9183564217
 C        -1.5829922657        4.1137986404       -3.4922224944
 C         4.6137621697        1.2700929483       -4.8893230581
 C         3.9173713356        0.0584518119       -6.9362135720
 C         4.8153408330       -4.7399581050       -2.5834908501
 C         6.3630702208       -4.2776850155       -4.5595700773
 C         0.2008339314       -5.3685897047       -8.3920357527
 C         1.7905276238       -4.9397849702      -10.3570448526
 C        -3.2531789748        1.1306813005       -9.7924696847
 C        -3.6088751594       -1.4176116967      -10.4679569668
 C        -4.4034608846        1.4273465923      -17.2296542004
 C        -6.0265034801        2.8761928565      -15.8668028895
 C       -11.6048732419       -1.2157743835      -16.5745629107
 C       -11.4270661776       -2.6871046763      -18.8181084019
 C       -15.0721555728        0.4176703832      -23.1201217969
 C       -13.4088441617       -1.0326644010      -24.1511043334
 C        -9.1448971271        5.2441840309      -23.0125426006
 C        -7.7724978832        3.8982603999      -21.3171785822
 H       -11.8261317779        5.3242794085      -21.6474889677
 H       -10.6369326994        6.4351085178      -20.8738857124
 H       -11.8594835476        5.3993115288      -20.0591636834
 H        -9.6922495255        2.5558180549      -24.7820372919
 H       -11.0593851232        3.3143535449      -23.9927433580
 H       -10.8637889090        0.3373221043      -23.8856520259
 H       -11.7880694659        1.2517262921      -25.0421631226
 H       -14.8596197255        0.4518997954      -20.5604625921
 H       -13.5842561453        1.4842083017      -20.5562219213
 H       -13.6207414730       -1.2857705289      -19.1274559365
 H       -13.7867854295        0.2513780399      -18.1988408212
 H        -8.4291376275       -2.3355314779      -17.0310330657
 H        -8.9405647930       -0.7586552845      -16.2277043638
 H        -7.0430431083       -0.7860634359      -18.7306366106
 H        -6.2974734681       -1.1830274947      -17.2037104730
 H        -3.9655530579        1.9163204546      -14.2282683555
 H        -3.3281786697        0.3326455098      -14.7505750214
 H        -4.4573380235       -0.8365276066      -12.7570895754
 H        -4.9595780557        0.7780262057      -12.3414237294
 H        -0.0334634109       -0.4400488828      -11.8327163037
 H        -1.1470173126       -1.5393756752      -12.0411451536
 H         1.3063330750       -1.5310807204      -10.3113020327
 H         0.8110914799       -2.6755287691      -11.5856838884
 H         3.6112743235       -4.9868356729       -8.4159569857
 H         2.4539426772       -5.4508077174       -7.1310786520
 H         3.7817047381       -2.9985726375       -6.1806012830
 H         4.9440461506       -4.1647246228       -6.8992550221
 H         4.1098043819       -1.8861262089       -1.9492402849
 H         2.9068446541       -2.7676753057       -2.8045582048
 H         3.5093355216        0.2093673383       -2.9650050050
 H         1.9180752134       -0.5833706543       -3.0117547196
 H         2.8609733199        3.8538554129       -6.1490581280
 H         3.0933588921        3.2261326383       -4.6405380711
 H         0.5457658454        3.8909683648       -5.8794172781
 H         1.0900410982        4.8031647743       -4.5679890755
 H        -1.7887447756        0.1610243903       -3.5990287194
 H        -0.5082810291        0.1518452679       -4.6912118800
 H        -2.2335426680        0.4927284053       -6.5735193484
 H        -3.5586806442        0.0809277837       -5.5591332289
 H        -1.9520314644       -2.5444245446       -3.3730446958
 H        -1.8329865682       -4.0258902185       -4.2682638383
 H        -3.6406302012       -4.9839892886       -2.4231147657
 H        -3.7871586812       -3.3289738852       -1.9081533634
 H        -2.6417257483       -7.5763964724        1.0775303143
 H        -0.8958537462       -7.3815069503        1.1908339136
 H        -2.3201358102       -9.4350451627       -0.6639783184
 H        -1.7725968636       -9.9894997679        0.8835164226
 H         0.8932065046      -13.6144101346        0.0853237547
 H         2.0716089418      -12.9723932520       -1.0990828320
 H         0.7844611848      -13.9532863465       -1.6633192845
 H         2.4790159601      -10.5253352090       -1.3360555418
 H         2.7932921228      -10.9934059313        0.3653519382
 H         2.3717935780       -9.2592413448       -0.0381236115
 H         1.1279832862      -11.9548409565        1.6425243191
 H        -0.6388179876      -11.7067855426        1.3497243864
 H         0.4382986775      -10.3826103032        2.0343752821
 H         0.1281725193       -6.5885890362       -2.3826513509
 H        -0.1429613631       -5.0612069998       -3.0960429806
 H        -1.4229624605       -6.4262150239       -2.9585435165
 H         0.4785540567       -4.1432593807       -0.5245485603
 H         0.9637733505       -5.7777313738       -0.4460147202
 H        -0.0202854182       -5.0656063189        0.7906367236
 H        -5.2418501867       -1.6379132232       -5.7535822858
 H        -5.3051491590       -2.7276310176       -7.1208955485
 H        -4.3274733941       -1.3023939160       -7.3225883665
 H        -3.4503750064       -4.8468228329       -6.4274323674
 H        -1.9061509558       -4.2103346082       -6.3079271123
 H        -2.8461350682       -3.8312027464       -7.7052112863
 H        -2.1793465820        2.0139587841       -1.6187234238
 H        -0.6284716889        2.8054185383       -1.2568877193
 H        -0.6119879420        1.0885712022       -1.8036529591
 H        -1.8360142458        4.3310143421       -4.4942348171
 H        -0.9938978063        5.0454910717       -3.1144858403
 H        -2.5975431721        4.0492963949       -3.0251320033
 H         5.0977933132        2.0453744401       -5.4144461902
 H         5.3541351218        0.4888893795       -4.7021418312
 H         4.3039534120        1.6191830176       -3.8447330855
 H         4.0994957591       -0.9518271640       -6.7845062579
 H         4.8063315567        0.6018625239       -7.2268745090
 H         3.1527753376        0.0443248314       -7.6728731952
 H         3.9001702311       -4.5470693542       -2.0205704316
 H         5.7130209773       -4.2804867032       -2.1282137195
 H         4.9139000964       -5.8211102159       -2.7196577268
 H         6.3244090471       -5.2028021017       -5.2667760808
 H         7.0931349930       -4.5646641588       -3.8658393962
 H         6.6156717624       -3.3291703299       -4.9587854243
 H         0.9529458580       -6.2053969369       -8.3343872294
 H        -0.7275341767       -5.6459924698       -8.9033299577
 H         0.0522169075       -5.2436093347       -7.3158755778
 H         2.2134300392       -5.8361783892      -10.0421431876
 H         2.6344684133       -4.2544231217      -10.6513125928
 H         1.2629386588       -5.2387964431      -11.2610865441
 H        -4.1832049634        1.5731626833      -10.1081390675
 H        -2.4974447180        1.9174230239       -9.8505763925
 H        -3.3730850118        0.7337682940       -8.7504164681
 H        -3.4736178656       -1.8177586616       -9.4725190857
 H        -3.0437871809       -2.1949634036      -11.1162307937
 H        -4.6619775598       -1.2158205726      -10.7295822627
 H        -3.6681544410        0.8825334558      -16.6967536693
 H        -3.9863611774        2.4148352817      -17.5160393043
 H        -4.6607301029        0.9756393517      -18.2150199724
 H        -5.1204255567        3.1506107952      -15.2662719001
 H        -6.8847560336        2.9667227996      -15.2549529753
 H        -6.1091379259        3.5498046892      -16.7767411057
 H       -11.0186167225       -1.8123076818      -15.8022453504
 H       -12.5673258153       -1.7229904052      -16.5108492677
 H       -11.5927500800       -0.2389692735      -16.2055844122
 H       -10.6120397534       -3.3224916303      -18.4825226650
 H       -11.4362625513       -2.6723020988      -19.9609399381
 H       -12.2120733467       -3.1262219275      -18.3923739548
 H       -15.3246243180        0.6433685437      -24.1561572961
 H       -15.2134333406        1.2646630053      -22.4881618442
 H       -15.6261648681       -0.4265700593      -22.7137523514
 H       -13.4134266610       -0.5167413149      -25.1646060349
 H       -14.2396212060       -1.6356285490      -24.2170787369
 H       -12.3934487176       -1.4730426656      -24.1061394299
 H        -8.6737040498        4.8290218909      -23.9352893621
 H        -8.4125017864        6.0047964755      -22.7497394998
 H       -10.1269943620        5.7622567352      -23.1163192121
 H        -7.0059336083        4.5621352355      -21.6650112586
 H        -7.4813156236        2.8519286199      -21.5133418588
 H        -7.8335307905        3.9633465734      -20.2273557472
 Na       -9.1651290634        1.5706661761      -19.4218517906
 Na        0.5984145778       -0.6173719300       -7.3915632934
