232

 C       -11.5133497890        5.4817995572      -20.8473697605
 C       -10.5020320304        4.3887532717      -20.7191495264
 O       -10.5327822978        3.6897106521      -19.7252397777
 C        -9.5430731263        3.9912359601      -21.9888192448
 C        -9.8890618389        2.6335623016      -22.5385594603
 O        -9.5982340506        1.6256140614      -21.9091486332
 C       -10.6223080881        2.5907728714      -23.9521822133
 C       -11.4930909470        1.3276734915      -24.1171659986
 C       -12.5801491037        1.4300561885      -23.1340921231
 O       -12.7393445768        2.4852012608      -22.5248509310
 C       -13.4933803042        0.2428021268      -23.0479827488
 C       -13.2850234555       -0.4030536123      -21.6175824182
 O       -12.6198607589       -1.4481841316      -21.6023380555
 C       -13.9312916476        0.2156597059      -20.2804579955
 C       -13.4257642774       -0.4366396974      -18.9322167197
 C       -11.9501458059       -0.0525853058      -18.5599967047
 O       -11.5905670711        1.0645143822      -18.6568176275
 C       -10.9580758878       -1.1971245963      -18.0786752995
 C        -9.5388636254       -0.8366739611      -18.4953554156
 O        -9.2780224313       -0.5356728848      -19.6736144366
 C        -8.4989747068       -1.0154242741      -17.4828562384
 C        -7.0666501449       -0.5523818561      -17.7704810579
 C        -6.8443951523        0.9346043444      -17.4034868399
 O        -7.7019279042        1.6900806404      -17.7654479833
 C        -5.7810789146        1.3986532637      -16.3231371216
 C        -5.5950547297        0.3545870885      -15.1367999643
 O        -6.2948719869       -0.6191921225      -14.9914659381
 C        -4.3781027144        0.6287063381      -14.1621057454
 C        -4.4140059725       -0.0760305102      -12.8046242972
 C        -3.0484128721        0.1620585875      -12.0946910149
 O        -2.0808778149        0.6121503219      -12.6810322769
 C        -2.9776008134       -0.1722899546      -10.5610295156
 C        -1.2953000163       -0.4228042105      -10.2591077309
 O        -0.9021583948       -0.0510386377       -9.1641379472
 C        -0.4205581240       -1.2030602915      -11.3104640512
 C         0.7338856933       -1.9250468665      -10.5945593218
 C         0.2075767028       -2.9986913532       -9.6711985099
 O        -0.9378435364       -2.9691295387       -9.2660202944
 C         1.0166218993       -4.3345836976       -9.2947285486
 C         2.0864024114       -3.8561454595       -8.2033432915
 O         2.4520568088       -2.6563400933       -8.2199521548
 C         2.7053013845       -4.7968232016       -7.1127261995
 C         3.7247871842       -3.9816800307       -6.3361299437
 C         3.7887681819       -4.5759265401       -4.9586463428
 O         2.9494120992       -5.3556548640       -4.6556050450
 C         4.8928068146       -4.0980695664       -3.9352968332
 C         4.7051117586       -2.5827913012       -3.8123211489
 O         5.4945596170       -1.7919157884       -4.3457116343
 C         3.3496071491       -2.0636096881       -3.1390539288
 C         3.3479350391       -0.5794162488       -3.3018295561
 C         3.0000628260       -0.3456030718       -4.7743317351
 O         2.1263139377       -0.9506496763       -5.3996395880
 C         3.6843288910        0.7846829741       -5.6493173054
 C         2.4037637732        1.7971249317       -5.8858438726
 O         1.3770126964        1.3999345438       -6.3980267019
 C         2.4439047274        3.2093478361       -5.3569261503
 C         1.0227152694        3.6109090175       -4.8523341557
 C         0.6081297657        2.5546010968       -3.7962491294
 O         1.4486134566        1.7454342063       -3.4066942794
 C        -0.9837927252        2.4423818851       -3.4874886163
 C        -1.6854406933        1.8980078530       -4.7920504561
 O        -2.3565970947        2.5097354230       -5.5932993649
 C        -1.5713939574        0.3132559705       -4.7992692482
 C        -2.1796177465       -0.3418366230       -5.9768488203
 C        -1.9717034947       -1.8398688864       -5.9453265958
 O        -0.8528284495       -2.2777957523       -6.0344001933
 C        -3.2628834000       -2.8520880371       -5.8580495672
 C        -3.6745393866       -2.9359859298       -4.3318580593
 O        -4.8238483299       -2.7274948524       -4.0351728107
 C        -2.5144048585       -3.1560899735       -3.3264227995
 C        -2.9336876526       -4.1672801246       -2.2611913951
 C        -1.8517384056       -4.2844575888       -1.0774418120
 O        -1.8953789518       -3.4651789680       -0.1858692408
 C        -0.9182500826       -5.4628869478       -1.1384295986
 C        -1.9062364187       -6.7506261996       -0.9596924409
 O        -2.8573120584       -6.9790102774       -1.6625415144
 C        -1.7291155718       -7.5255294774        0.3544998014
 C        -1.4522323206       -9.0384560963        0.0316443781
 C        -0.0086744343       -9.2155864555       -0.5111239677
 O         0.4180560227       -8.2830874386       -1.1500620889
 C         0.7005415234      -10.4995202411       -0.2440522496
 C         0.3290439135      -11.6421736215       -1.4085559220
 O        -0.5724898976      -11.5334657360       -2.1521457388
 C         1.0949491698      -13.0094123616       -1.1912820257
 C         2.2037493917      -10.1930658824       -0.2809211550
 C         0.3907431187      -11.1096185729        1.2084174779
 C        -0.3427891233       -5.6611563325       -2.6310685064
 C         0.1944677267       -5.4381480332       -0.0980370241
 C        -4.3871889569       -2.1163708227       -6.5983204189
 C        -2.9420487449       -4.2308852397       -6.3653375823
 C        -1.1907939541        1.5416525556       -2.1924184578
 C        -1.5463470687        3.8447668850       -3.2112142686
 C         4.7879543358        1.5438131255       -4.9748274405
 C         4.0490780542        0.1828282116       -7.0082337448
 C         4.7578936230       -4.8159356043       -2.6113663185
 C         6.4259110024       -4.2301034777       -4.4130120305
 C         0.0432733640       -5.4387745146       -8.8494422782
 C         1.9013921922       -4.9247967454      -10.5353326428
 C        -3.5287470058        0.9516523321       -9.5961157831
 C        -3.5708150379       -1.5975337256      -10.2250595978
 C        -4.5280748454        1.3564422266      -17.3773055299
 C        -6.1431569244        2.7298732003      -15.6730834060
 C       -11.1913375549       -1.2535403519      -16.4947335050
 C       -11.4160233330       -2.4994231019      -18.7858933549
 C       -14.8807642141        0.8628194649      -23.1389934539
 C       -13.3449734313       -0.7209364563      -24.1879712546
 C        -9.4403594537        5.0578482881      -23.1726232587
 C        -8.1153845434        3.8117346104      -21.2676506118
 H       -12.2236132019        5.2900709960      -21.6410858606
 H       -10.8207361001        6.3796899907      -21.0365804591
 H       -12.1582653600        5.5412826758      -19.9715662006
 H        -9.8948809511        2.8052524233      -24.7712058697
 H       -11.2783912839        3.4672371635      -23.8826376803
 H       -10.9060087389        0.3690299788      -23.9459869976
 H       -12.0978740099        1.2664324887      -25.1063719774
 H       -15.0367313410        0.2969273646      -20.4190471764
 H       -13.7043380837        1.2983126585      -20.3524157824
 H       -13.4483769872       -1.5202718365      -18.9297709264
 H       -14.0689485121       -0.0921642788      -18.1452218708
 H        -8.4218296078       -2.0167751059      -17.3463641993
 H        -8.8270151330       -0.4820166576      -16.5740561253
 H        -6.8902726122       -0.6130984817      -18.8335179654
 H        -6.4110391512       -1.2528801635      -17.3647578908
 H        -4.2732652291        1.7316184753      -14.0931515773
 H        -3.4869616292        0.2646946732      -14.6625956769
 H        -4.8288619391       -1.1160325216      -12.8816906235
 H        -5.2211535183        0.3454736948      -12.1621797488
 H        -0.1399787135       -0.3657358014      -12.0343428081
 H        -1.0241077477       -1.7816843272      -11.9676824419
 H         1.4096014254       -1.1428018746      -10.1289230476
 H         1.3124221285       -2.4175285768      -11.3421949584
 H         3.0462216558       -5.6849645793       -7.6003799640
 H         1.9161892942       -5.0985791427       -6.4463357041
 H         3.4483508740       -2.9033155515       -6.2780021100
 H         4.7358051377       -4.0296690669       -6.6801049169
 H         3.1516992752       -2.3616200403       -2.1228782220
 H         2.4718174440       -2.4719239980       -3.6486188536
 H         4.3554570214       -0.1760005319       -3.1587483001
 H         2.7910019697       -0.0543317651       -2.4779339245
 H         2.6695232158        3.8289148553       -6.2147322600
 H         3.1236699082        3.6734745604       -4.6207147199
 H         0.3907728285        3.8233577291       -5.6692330194
 H         1.2692252498        4.5891326242       -4.3937446333
 H        -1.9054955208       -0.1420458542       -3.8162223122
 H        -0.4809802358        0.1593113687       -4.7355496682
 H        -1.8804776985        0.0204506568       -6.9503998329
 H        -3.2566241495       -0.1297196674       -5.9597673861
 H        -2.4210734228       -2.1826758952       -2.8493540645
 H        -1.5936639632       -3.4455923041       -3.7952601860
 H        -3.1959333342       -5.1130243777       -2.7962286009
 H        -3.8604405667       -4.0465089155       -1.7282023122
 H        -2.6349907260       -7.5630218752        0.9627566032
 H        -0.9659307244       -7.0918426279        0.9761049419
 H        -2.0668422368       -9.3916080151       -0.7643198748
 H        -1.7225193276       -9.6320550256        0.8526304829
 H         0.8561034352      -13.3751875330       -0.2043568755
 H         2.1890540931      -12.9826493947       -1.2063512602
 H         0.7123405913      -13.7594927711       -1.9106472075
 H         2.7259868715      -10.9858047724       -0.7255368799
 H         2.6742062415      -10.0970716186        0.6945898416
 H         2.3655757096       -9.3246351387       -0.8701722287
 H         1.1436256734      -11.8783632502        1.3667766306
 H        -0.6315979704      -11.5331706497        1.1999141398
 H         0.3670798537      -10.3034507859        1.9050051616
 H         0.1555294596       -6.6292328931       -2.6905625782
 H         0.4954262399       -4.8911840455       -2.7381974530
 H        -1.1113891967       -5.7621267977       -3.3631956807
 H         0.9955213464       -4.7899296780       -0.4466168532
 H         0.7786254561       -6.3731680220        0.1923308365
 H        -0.1517138984       -4.9308680706        0.8055992785
 H        -4.8460685935       -1.4506625401       -5.8229704885
 H        -5.1191274520       -2.8918459221       -6.9054179125
 H        -4.0646281841       -1.5305132959       -7.4342565924
 H        -3.7647266421       -5.0222617093       -6.3357883143
 H        -2.1910234756       -4.7434688948       -5.6955401469
 H        -2.5707871318       -4.0550909654       -7.3783908138
 H        -2.2546309695        1.5002034034       -2.0025678256
 H        -0.7359382793        2.0536288335       -1.3440975476
 H        -0.7141154274        0.6090671497       -2.3121948194
 H        -1.2151811052        4.5831787043       -3.9079253325
 H        -1.2518402123        4.0721082855       -2.1683074540
 H        -2.5968059764        3.9282783367       -3.2453260165
 H         5.1506976926        2.2701960995       -5.6321206030
 H         5.7102128933        0.9319817860       -4.8971792004
 H         4.5912973061        2.0935868145       -4.0047833814
 H         5.1296077839        0.3557966827       -7.2194765893
 H         3.4608780234        0.6765003625       -7.8407167972
 H         3.8872334093       -0.9045606861       -6.9896511614
 H         3.7382052689       -5.1941194316       -2.5015889716
 H         5.0164178322       -4.1442182965       -1.7706158177
 H         5.4213004648       -5.6064826786       -2.7262708458
 H         6.5898900154       -5.3406316710       -4.5342015238
 H         7.1220516172       -3.8895422641       -3.6451305178
 H         6.6586014857       -3.6468906156       -5.2725659753
 H         0.4992894558       -6.3403165923       -8.3914625932
 H        -0.4353118484       -5.6883015035       -9.7379085947
 H        -0.6159388144       -5.1141895442       -8.0774845034
 H         2.4799308649       -5.8220572964      -10.2486630045
 H         2.6163265721       -4.1227858140      -10.8373667779
 H         1.3327684685       -5.0565773501      -11.5032901771
 H        -4.4830163195        0.7565545584       -9.2507743327
 H        -3.5395888470        1.8874540880      -10.1414686561
 H        -2.8518794966        0.9485878200       -8.7060313376
 H        -3.3321368670       -1.8395685415       -9.2266393310
 H        -3.0595433729       -2.3184942178      -10.8821943584
 H        -4.6314882993       -1.5458560093      -10.3369482609
 H        -3.6675211923        1.3024576595      -16.8003201672
 H        -4.4146218111        2.3583937441      -17.8856651878
 H        -4.5280284031        0.4492736578      -18.0468719892
 H        -5.4573323869        3.2654988482      -15.0277268185
 H        -7.0769582884        2.5913506017      -15.1107118484
 H        -6.2684157843        3.3808048370      -16.5866652969
 H       -10.7294055122       -2.2653797443      -16.1220875763
 H       -12.1839277306       -1.2791445862      -16.1812224318
 H       -10.6559018585       -0.5430162451      -15.9009251595
 H       -10.6396720639       -3.3320442668      -18.7747675380
 H       -11.5823820874       -2.1869351792      -19.8983731580
 H       -12.3133898004       -2.8075825529      -18.3617096049
 H       -15.0863578472        1.0849590117      -24.2326419468
 H       -14.8678222993        1.7397690525      -22.5525356440
 H       -15.5645569325        0.0844144048      -22.7609313615
 H       -13.7502821483       -0.3489506386      -25.1479827930
 H       -13.9728617440       -1.5249339564      -23.9530083482
 H       -12.3126140000       -1.1677014585      -24.2659726350
 H        -8.6416331187        4.7873886911      -23.8188247894
 H        -9.2742586866        6.0365957694      -22.8091590949
 H       -10.4121300892        5.1274069787      -23.7132469853
 H        -8.3898386250        3.6097821658      -20.2705439994
 H        -7.5587443347        4.8005962723      -21.2527239056
 H        -7.3953624790        3.0693864278      -21.6595177489
 Na       -9.5314789856        1.6599823157      -19.6300208717
 Na        0.8757343514       -0.8018525441       -7.2329260961
