232

 C       -22.0153876089       -6.7295000858       -5.3633150194
 C       -21.1298687392       -6.0341147304       -4.3725014832
 O       -19.9103167391       -6.1568565556       -4.5165925712
 C       -21.7435804941       -5.1285068133       -3.2234082925
 C       -20.6047420097       -4.5739510529       -2.3532200657
 O       -19.9433348325       -5.3632504287       -1.7044026876
 C       -20.2215304460       -3.0639141920       -2.2736790101
 C       -18.7387113131       -2.7731535804       -1.6991372356
 C       -17.6568068115       -3.3330829036       -2.5711256219
 O       -17.8891054744       -3.8544616328       -3.6432095889
 C       -16.1962961328       -3.3370258062       -2.0562284857
 C       -16.0400487469       -4.7212016133       -1.2589616910
 O       -17.0557831667       -5.1350677239       -0.6644547311
 C       -14.6808612798       -5.4593437717       -1.1134012115
 C       -14.9272857243       -6.9601520548       -0.7192386732
 C       -15.1603140262       -7.7156007439       -2.0479100010
 O       -16.2116665551       -7.5681295481       -2.6406875550
 C       -14.1343393145       -8.8689627880       -2.5055242845
 C       -12.6694651220       -8.3326493007       -2.5892675943
 O       -12.3316643641       -7.2798516192       -2.0886120082
 C       -11.5845825036       -9.3637845765       -3.0646107794
 C       -10.2189498297       -8.7896632365       -3.3901657179
 C        -8.9793816530       -9.6267186166       -2.8376321054
 O        -9.0909314182      -10.1343141469       -1.7414571931
 C        -7.6933633793       -9.6771997432       -3.7444616442
 C        -7.5356720664       -8.3655358022       -4.5619981076
 O        -7.8787407936       -7.2418152961       -4.1483328128
 C        -7.0385041965       -8.4932160171       -5.9816556704
 C        -6.1989400663       -7.2937443075       -6.3878301845
 C        -7.1087965787       -6.3023487048       -7.1186121494
 O        -8.0698549762       -6.7249306146       -7.6988872445
 C        -6.5949780381       -4.7838887103       -7.3671667396
 C        -5.5806728830       -5.1449785795       -8.4211974690
 O        -4.4863046318       -5.4042696477       -7.9468775775
 C        -5.8423306652       -5.4509072741       -9.9198449680
 C        -5.1376413147       -4.4883262118      -10.8825911220
 C        -4.9812297715       -5.0665709431      -12.2980964071
 O        -4.5737566169       -6.1791546789      -12.5836045732
 C        -5.3299341983       -4.0407518817      -13.4586829185
 C        -4.4792762230       -2.7677690947      -13.1584885927
 O        -4.8700711560       -2.0764738361      -12.2356192559
 C        -3.0701722473       -2.6305545944      -13.7297171440
 C        -2.1037003593       -2.4625970851      -12.5087827238
 C        -0.7566490076       -1.6730075046      -12.7614310291
 O        -0.8189753663       -0.6147888372      -13.3802379923
 C         0.6457404491       -2.1105057198      -11.9914148855
 C         1.7737817089       -1.2177534597      -12.4937178396
 O         2.4759991945       -1.6027771206      -13.3964820422
 C         1.9900337182        0.2199529626      -11.8865759615
 C         3.3921679701        0.3858453807      -11.1738944099
 C         3.5379271056        1.6746224162      -10.3371968811
 O         2.5865933626        2.0286627571       -9.7059532010
 C         4.9246790761        2.3399472757      -10.2875144309
 C         4.8922400963        3.1700520406      -11.6622859851
 O         5.7213643036        2.8693381427      -12.5510391039
 C         3.9270778629        4.3801909144      -11.8180221386
 C         4.5495014039        5.7873808791      -11.3779973337
 C         5.4886758159        6.3406844852      -12.5331430912
 O         5.2501332637        6.0180209591      -13.6576366713
 C         6.6502502640        7.4474912188      -12.2939083916
 C         7.5876430884        7.4260817105      -13.5128368354
 O         7.6294006195        8.3157132661      -14.3206420140
 C         8.5604560637        6.2330728233      -13.7256023752
 C         9.1714374185        6.2579554359      -15.2137165302
 C         8.0654921032        6.0352348319      -16.3001026388
 O         7.2191083992        5.1668009283      -16.1537923499
 C         8.0220050310        6.7005837170      -17.7135647181
 C         8.5851665718        5.6295562400      -18.7765657558
 O         9.4131319880        4.8372137660      -18.4586928478
 C         7.8812439120        5.4781226636      -20.1979453527
 C         8.6746161951        4.5112098180      -21.0238424853
 C         8.2406252243        3.0779276061      -20.6604141304
 O         7.1202543918        2.9701768974      -20.1407733703
 C         9.1621817778        1.9396255780      -20.6818456692
 C         9.3838393897        1.1793371191      -19.2630943116
 O        10.2304021978        0.3387528890      -19.1747715904
 C         8.3973763430        1.3427984656      -18.0545209749
 C         8.6169097868        0.5945392481      -16.8040500914
 C         7.4957842473        1.0562096992      -15.8836247187
 O         7.7187540801        1.7830801458      -14.9368360192
 C         6.0402218693        0.4875430354      -16.2202322392
 C         5.1683355150        1.6814907341      -16.8051539301
 O         4.9854489459        2.7598252142      -16.2849908786
 C         4.1131201360        1.3684565606      -17.9681370914
 C         5.9613740814       -0.7568584892      -17.0789337862
 C         5.2584183679        0.3454604157      -14.8709154513
 C         8.3293658115        0.8657066223      -21.4838268252
 C        10.5695574319        2.2175468546      -21.4055303143
 C         6.5182335338        7.1861060635      -17.7877471703
 C         9.0129284317        7.9425842826      -17.9253497354
 C         5.9794939683        8.8232620088      -12.2180058647
 C         7.4630119709        7.1355541733      -11.0791180574
 C         4.9497941368        3.1648801118       -8.9858992629
 C         6.1016153961        1.4006011132      -10.2693062375
 C         0.2961717437       -1.9161936023      -10.4407302149
 C         1.0479553723       -3.5983097632      -12.1398172427
 C        -5.0717929716       -4.5912838808      -14.8755612108
 C        -6.9082292374       -3.5835844517      -13.3072891609
 C        -7.7250405787       -3.8595268528       -7.8971687340
 C        -6.0950769692       -4.2992513424       -5.9949905385
 C        -6.4195088001       -9.8988227487       -2.9171159303
 C        -7.7991392911      -10.8936184836       -4.7008322072
 C       -14.1890219081       -9.8061712795       -1.2335861102
 C       -14.5812547836       -9.5899238774       -3.8086242677
 C       -15.2370984123       -3.2233908074       -3.2666317562
 C       -16.0021757111       -2.2524286725       -0.9850627666
 C       -22.4732109409       -3.8926424710       -3.8761706249
 C       -22.7448094484       -5.9300152938       -2.4093563241
 H       -22.5914164343       -6.0056186867       -5.8885667111
 H       -22.7503962577       -7.4298716353       -4.8501836554
 H       -21.3284084483       -7.1865756864       -5.9774071067
 H       -20.9000039909       -2.6339518897       -1.5308773308
 H       -20.2520876634       -2.6208286085       -3.2779375524
 H       -18.5803544850       -3.0757765973       -0.6755339365
 H       -18.6569867583       -1.6794828266       -1.6738617286
 H       -14.0835724860       -4.9042800035       -0.3478063623
 H       -14.0943281117       -5.3658965904       -2.0458528404
 H       -15.7479146686       -7.0206869080       -0.0570740223
 H       -14.1176839721       -7.2837280089        0.0105520114
 H       -12.1116889360       -9.9349529664       -3.8364630521
 H       -11.4708373554       -9.9773405300       -2.1033355881
 H       -10.1623269594       -7.7808764372       -2.9176149575
 H        -9.9860841501       -8.6802395791       -4.4400330421
 H        -7.8471552126       -8.7122462490       -6.6942019687
 H        -6.3717763505       -9.4136346440       -5.9752005511
 H        -5.4316572411       -7.5384088707       -7.1755130019
 H        -5.7256012176       -6.6703238315       -5.5477086746
 H        -6.9662971853       -5.3680613359      -10.1683174913
 H        -5.5400843219       -6.4764823715      -10.0995070405
 H        -4.1320566111       -4.1520593297      -10.6333899205
 H        -5.7636507383       -3.6608946040      -10.9312996248
 H        -2.9395827230       -1.7568054159      -14.3893905191
 H        -2.6351478126       -3.4717746884      -14.2704853779
 H        -2.0510458304       -3.4562114869      -12.2285703506
 H        -2.5890295767       -1.9717326816      -11.6988795217
 H         1.2412467441        0.4433079343      -11.1633818439
 H         1.8489468111        0.9057605528      -12.7129879574
 H         4.1800639391        0.4067839625      -11.9970574872
 H         3.6804326594       -0.5750581822      -10.6617279854
 H         2.9467560066        4.1644857430      -11.4771999535
 H         3.7193238480        4.3791457703      -12.9602373060
 H         5.1942907795        5.6846010379      -10.5050577530
 H         3.7228097210        6.4567184821      -11.3216291271
 H         7.9394412031        5.3576867785      -13.4754166379
 H         9.3900112631        6.2267028051      -13.0309017308
 H         9.7237627509        5.4645708829      -15.3223792024
 H         9.7093101972        7.1796895330      -15.5297190631
 H         7.7548714901        6.4430628270      -20.6335456979
 H         6.8604683521        5.0864890988      -19.9885873146
 H         9.7255319402        4.4927160400      -20.8064472698
 H         8.5377241586        4.7512935427      -22.1446235295
 H         7.4101026180        1.1796506892      -18.5601413662
 H         8.3685895634        2.4192442928      -17.7986651560
 H         9.4681076975        0.9229626068      -16.3015328427
 H         8.6441305338       -0.4964299108      -16.8745210262
 H         4.6443541261        1.2381402164      -18.9583490164
 H         3.4322044647        2.2221971285      -18.0090201793
 H         3.5028905117        0.4385876119      -17.9184253756
 H         5.0368431307       -1.1814964806      -16.8873104244
 H         6.6515152526       -1.5883054963      -16.8593252228
 H         5.9868997092       -0.6951658163      -18.1653232802
 H         4.1798439395        0.3478067469      -14.9204975025
 H         5.6470527571        1.1894141465      -14.2210421783
 H         5.4793431812       -0.6726633330      -14.4033209902
 H         8.7376470924       -0.1478811514      -21.3559757887
 H         8.3829699909        1.0382964626      -22.6100038938
 H         7.3119716541        0.8296031804      -21.0003553754
 H        11.0536269404        1.2978255012      -21.6221583776
 H        11.1230623716        2.8260999209      -20.6869771480
 H        10.4470780730        2.8407470844      -22.2669758354
 H         6.3325756569        8.0064233627      -17.1022926393
 H         5.9329250237        6.2785846555      -17.5328926821
 H         6.2200869778        7.6212096970      -18.7643420970
 H        10.0073663100        7.4101589622      -17.8824537044
 H         8.8589963395        8.6894278242      -17.1816047712
 H         8.9305227876        8.3463658764      -18.8865922749
 H         6.5407833522        9.5774572474      -11.6636860408
 H         5.0326768110        8.5925842707      -11.7475678159
 H         5.9751448420        9.2883934940      -13.2325554563
 H         6.9188290876        7.0232988074      -10.1564232650
 H         8.1954405773        8.0347366462      -11.0217243239
 H         8.0897708724        6.2511203068      -11.2502814111
 H         5.7394958384        3.8808223614       -9.0934701282
 H         5.0959160007        2.4222359516       -8.2376935330
 H         3.9788801517        3.6491462849       -8.8130690911
 H         7.0210366888        2.0026113107      -10.2624557748
 H         6.3675976564        0.6291497090      -11.0115519150
 H         6.1681093784        0.7910128988       -9.3295873227
 H        -0.2794580681       -1.0129416827      -10.2619248356
 H         1.2647573507       -1.8766437695       -9.8072916013
 H        -0.3204882206       -2.8328093441      -10.2307394093
 H         0.2095039217       -4.2428763575      -11.8445594750
 H         1.9135425293       -3.8324676076      -11.5230180258
 H         1.3636080864       -3.7638173499      -13.1590261650
 H        -4.7615948119       -3.7252473554      -15.4520113415
 H        -5.8778307371       -5.1420915314      -15.4391008412
 H        -4.2340427568       -5.2673383400      -14.7615623042
 H        -7.0607249973       -2.7876612256      -14.1156830178
 H        -7.0038814020       -3.0746252838      -12.3367759081
 H        -7.5703424905       -4.4315546482      -13.5206912729
 H        -7.8712086143       -2.8492794138       -7.4975642057
 H        -8.7035759381       -4.4544748008       -7.7459701954
 H        -7.5317900107       -3.5702300651       -8.9796436041
 H        -7.0041138624       -4.1645480856       -5.3827917462
 H        -5.6398911604       -3.3474836204       -5.9815188559
 H        -5.3641105670       -4.9158351212       -5.4990746598
 H        -6.3978977135      -10.7901229284       -2.2953295295
 H        -6.3156151416       -9.0638166915       -2.2215972431
 H        -5.6265270460       -9.8554984544       -3.6606324588
 H        -8.1702077306      -11.8676995546       -4.2722250866
 H        -6.8885878073      -11.1212397759       -5.2046830642
 H        -8.4565696975      -10.7346850723       -5.5565887278
 H       -13.3980699392       -9.5179404130       -0.5414092445
 H       -13.9372035566      -10.8258993717       -1.3595286833
 H       -15.1432342076       -9.7455801716       -0.6997140295
 H       -14.2776035117       -9.1631396786       -4.7486239425
 H       -15.6003342684       -9.6297424438       -3.9004555273
 H       -14.3233894702      -10.5771084592       -3.8723801380
 H       -15.2372868817       -4.1252025199       -3.7291845229
 H       -14.3464553918       -2.7328160368       -2.9544141376
 H       -15.7195496895       -2.5037112301       -3.9648825273
 H       -16.5545034311       -2.5445466364       -0.0425855258
 H       -16.2833762170       -1.2685718724       -1.1849395917
 H       -14.9176616613       -2.1130656214       -0.7665666204
 H       -22.0394984555       -3.5359668659       -4.7961650393
 H       -22.5546981086       -3.0475816448       -3.1989401966
 H       -23.5150213324       -4.1119728534       -4.0413696835
 H       -23.3462911400       -5.3095291255       -1.7143816044
 H       -22.2997112162       -6.7858280857       -1.8852301268
 H       -23.4737687047       -6.2832832798       -3.0909011453
 Na      -18.2479631245       -6.3802635801       -2.7984029440
 Na        6.2193907623        3.6901775619      -14.6682481377
