232

 C       -12.3726406193        5.3327326498      -21.3398663948
 C       -10.9818564197        4.6237877108      -20.9300309547
 O       -10.9815157403        4.2128154121      -19.7765810811
 C        -9.7875331113        4.3701029010      -21.9943740391
 C        -9.8080139203        2.9134646547      -22.3679358544
 O        -9.4629341521        2.0497045353      -21.5848703320
 C       -10.4857225698        2.3711254844      -23.7306907080
 C       -11.4600327939        1.2071645201      -23.6084815529
 C       -12.7264218007        1.4700037937      -22.7416515212
 O       -12.9438572927        2.4992116261      -22.1672302941
 C       -14.0080125417        0.2531733984      -22.7371028055
 C       -13.5342920004       -0.5096959011      -21.4541604685
 O       -12.6104430960       -1.2667049177      -21.5959029892
 C       -14.0507351359       -0.0436478463      -20.0385529773
 C       -13.3871581013       -0.6903304609      -18.8512298995
 C       -11.8888128937       -0.2776575890      -18.7303515114
 O       -11.5295593128        0.8725253812      -18.9339429760
 C       -10.8666587474       -1.4169277939      -18.2578933755
 C        -9.4005740979       -1.0886966042      -18.4457048050
 O        -9.0765643003       -0.5550273106      -19.5335888332
 C        -8.2999122969       -1.3928900076      -17.3084533059
 C        -6.9930814510       -0.6719656112      -17.6179717373
 C        -7.1555319746        0.8191422124      -17.2277037822
 O        -8.1493707421        1.4114894688      -17.6780903107
 C        -6.0858445022        1.4813142913      -16.3585749513
 C        -5.8470069937        0.4549315300      -15.0674387975
 O        -6.7617592870       -0.2546296979      -14.6976799120
 C        -4.4924873580        0.5332523021      -14.4355443289
 C        -4.3941008979       -0.2279321836      -13.1309888640
 C        -3.0397976922       -0.1966646211      -12.3204488330
 O        -2.1041737943        0.2914022459      -12.8971125980
 C        -2.8796617085       -0.7314924384      -10.8343443960
 C        -1.3407384340       -0.7497049827      -10.4496029943
 O        -0.9390991280       -0.2546091331       -9.3863757741
 C        -0.2785454464       -1.1666586807      -11.4810297359
 C         0.9304204242       -1.8440940251      -10.7858372160
 C         0.4309613469       -3.1365322950      -10.0224968605
 O        -0.7402132478       -3.3663756206       -9.9024345953
 C         1.4156284539       -4.2179485261       -9.3824955010
 C         2.0273355385       -3.6741633770       -8.0662803403
 O         2.2583080788       -2.4411881823       -7.9269911621
 C         2.3081538678       -4.5862081001       -6.8599754700
 C         3.7535207754       -4.3146426681       -6.2748184278
 C         3.5827187304       -4.4777377293       -4.6970801508
 O         2.4337463000       -4.2424901000       -4.3668339514
 C         4.7426757408       -4.4671274258       -3.6611251426
 C         4.9616795501       -2.8828734306       -3.6401904766
 O         5.8579259522       -2.4388711005       -4.2851654926
 C         3.9737860980       -1.9050454116       -3.0067726485
 C         3.9629278093       -0.4538866441       -3.5908336366
 C         3.3061984957       -0.2704176833       -4.9432073323
 O         2.4588875159       -1.0314858863       -5.3971850717
 C         3.5716498952        0.9832352337       -5.8311809756
 C         2.1099912651        1.7753764028       -5.8849124011
 O         1.2597132294        1.1340933157       -6.4595124149
 C         2.0011954125        3.1577900422       -5.2795896697
 C         0.5842531347        3.4308407129       -4.6909529324
 C         0.2925285258        2.5031965013       -3.5036175713
 O         1.1944466101        1.7917223820       -3.0144367945
 C        -1.1491444097        2.3133126154       -3.0782846186
 C        -1.7180791357        1.5762480732       -4.3373696498
 O        -2.0892887026        2.2026967564       -5.3009473913
 C        -1.6421263379       -0.0187403398       -4.4932774449
 C        -2.2794235512       -0.4889082449       -5.7949238789
 C        -1.8869624400       -1.9707210762       -6.1472304202
 O        -0.7792841186       -2.2320775230       -6.5202668932
 C        -2.8434846456       -3.1285557815       -5.6857848506
 C        -3.4747199954       -2.6373711489       -4.2991179878
 O        -4.3733654052       -1.8162245151       -4.2614633162
 C        -2.6289019122       -2.8678281402       -2.9895968293
 C        -2.7458597820       -4.2087226340       -2.2996877947
 C        -1.6520612022       -4.1381685115       -1.1861246523
 O        -1.6335096192       -3.2887856168       -0.3515798507
 C        -0.4054818189       -5.2410410386       -1.1408915823
 C        -1.2591094140       -6.5996659094       -1.3190423783
 O        -1.4562765380       -7.0339636258       -2.4655970127
 C        -1.8369818151       -7.4936442711       -0.1463015651
 C        -1.4440907831       -8.8897887156       -0.2880177024
 C         0.0935666328       -9.0532376658       -0.4436750613
 O         0.8145393682       -8.1360487526       -0.7851454322
 C         0.7682410802      -10.4470425537       -0.4968751286
 C         0.0865929376      -11.3982524979       -1.4953645544
 O        -1.1219608212      -11.4408068368       -1.7431787891
 C         0.9224436184      -12.5438642370       -2.0672565891
 C         2.3011460093      -10.1737770490       -0.7344528383
 C         0.5090102890      -11.0891078465        0.8748264923
 C         0.5663492401       -5.1184112958       -2.2869610614
 C         0.3280750909       -5.0550186446        0.1769920536
 C        -4.0924249942       -3.1509253510       -6.6993584831
 C        -2.0276132187       -4.3946095520       -5.6226069915
 C        -1.2492859374        1.4220756126       -1.7394028626
 C        -1.9138690357        3.7310172445       -2.9591858464
 C         4.6738434938        1.8097503400       -5.2139914192
 C         3.8538759104        0.5022615744       -7.2986313060
 C         4.5456571621       -4.8851337861       -2.1922858992
 C         5.9493604774       -5.1973988092       -4.3321466267
 C         0.7697797227       -5.5531258127       -9.3088165894
 C         2.7430888457       -4.4004091773      -10.3451718992
 C        -3.6385138995        0.2972185773       -9.9646524175
 C        -3.4680328476       -2.1203780484      -10.6251881398
 C        -4.7323605950        1.4421557250      -17.2305166862
 C        -6.5173873750        2.7923123016      -15.7405697635
 C       -11.3858967926       -1.6275382334      -16.7656252182
 C       -11.0974518097       -2.7030986038      -19.0750472164
 C       -15.3276238136        0.9982908746      -22.5637267277
 C       -14.0567948107       -0.4909834148      -24.0969524415
 C        -9.8257103754        5.3909094044      -23.1719085063
 C        -8.4502763454        4.6754247913      -21.2091525485
 H       -12.7293451221        4.9928230586      -22.3354843970
 H       -12.1022440258        6.3790000880      -21.3834861655
 H       -13.0174157494        5.3037001745      -20.4716936224
 H        -9.5073234033        2.0848047467      -24.2612779351
 H       -10.8568076612        3.1732809081      -24.3423394999
 H       -10.8623366616        0.3240911230      -23.4297173040
 H       -11.8748198791        0.9914909165      -24.5899178792
 H       -15.1065433014       -0.2453891241      -19.9948699365
 H       -13.8511873651        1.0211606037      -20.0187399995
 H       -13.3392759660       -1.7842315012      -18.8604290771
 H       -13.8368367378       -0.3723683482      -17.9214126323
 H        -8.0963219022       -2.4806807483      -17.2860666040
 H        -8.6616775469       -1.1930274927      -16.2771432355
 H        -6.8072298417       -0.7850170495      -18.7625419644
 H        -6.2232298119       -1.1664124233      -17.0507035327
 H        -4.1455418265        1.5854708102      -14.3453089346
 H        -3.8476139299        0.1499632560      -15.1981207884
 H        -4.5404636441       -1.3132873478      -13.3568956867
 H        -5.1715132822        0.0142406306      -12.3671332837
 H        -0.0441924548       -0.1798163369      -11.9238843256
 H        -0.6987119000       -1.9670439706      -12.1250183208
 H         1.3600377825       -1.0498835428      -10.1785671543
 H         1.6432691973       -2.0590862080      -11.5638690377
 H         2.0597193376       -5.7169497040       -7.0863119006
 H         1.6057198871       -4.2410432225       -6.2456813086
 H         4.0682612117       -3.3105647009       -6.4051975261
 H         4.5790226154       -4.9736540317       -6.6559486239
 H         4.1758387902       -1.8876686394       -1.9155974091
 H         3.0122663431       -2.4520864104       -3.1709663410
 H         4.9568174858       -0.0492080353       -3.6773296089
 H         3.6840886595        0.2362983504       -2.8212195708
 H         2.1840798067        3.8027622852       -6.2204195598
 H         2.6842627580        3.5196263794       -4.5137781814
 H         0.0249408665        3.0555420773       -5.5290766961
 H         0.4980814606        4.5675321685       -4.6108025629
 H        -2.1608418535       -0.5203159792       -3.6493016866
 H        -0.5710522307       -0.1845280752       -4.4748760057
 H        -1.8770104526        0.0325718362       -6.6387769610
 H        -3.3230906863       -0.3591965974       -5.6445505584
 H        -2.7703836167       -1.9304286294       -2.3790662808
 H        -1.6021737945       -2.8658835366       -3.4233016025
 H        -2.5379064259       -5.0406114616       -3.0506903926
 H        -3.7597147434       -4.2690813786       -1.8176277868
 H        -2.9429170376       -7.3544600645        0.0604535995
 H        -1.3349250661       -7.1660487451        0.8403187582
 H        -1.8701885870       -9.3518936926       -1.2107125598
 H        -1.7528099951       -9.4350656767        0.6726347574
 H         1.8537630770      -12.7104423499       -1.4849092396
 H         1.2739563060      -12.2537534195       -3.0444969547
 H         0.3538540476      -13.4544298573       -2.1047742756
 H         2.6511999763       -9.2116476258       -0.3618445521
 H         2.4888153367      -10.2239572245       -1.8374383369
 H         3.0206629984      -10.8452746904       -0.2550060343
 H         1.2526129028      -11.9057856523        1.0829204721
 H        -0.4835900129      -11.5156652119        0.7713323001
 H         0.6342585767      -10.3198036770        1.6217621001
 H         1.4417072891       -5.7502226684       -2.2161170592
 H         0.8121506602       -4.0343776804       -2.3649787451
 H         0.0180234595       -5.2333366659       -3.1639595078
 H         0.7766293553       -4.0561148040        0.1894091998
 H         1.0526917042       -5.8123559266        0.3515865128
 H        -0.4377846383       -5.0349106574        0.9967217828
 H        -4.3103535234       -2.0946707825       -6.8467305753
 H        -4.8732634077       -3.5897501393       -6.1676890187
 H        -3.8393996732       -3.6654355522       -7.6809304904
 H        -2.6787269785       -5.2049481570       -5.7085341869
 H        -1.3641552780       -4.4009462067       -4.8394018317
 H        -1.3828314469       -4.4372861163       -6.4973187811
 H        -2.2389867912        0.9294346415       -1.8178219288
 H        -1.1793542993        2.1311130631       -0.8837799876
 H        -0.5060410728        0.6442178284       -1.7189056533
 H        -1.5537297950        4.3745899516       -3.7136721071
 H        -1.6087834970        4.2289427219       -1.9949600770
 H        -3.0062466919        3.5204331557       -3.0101200779
 H         4.7326300649        2.7149440613       -5.8084472753
 H         5.6193082787        1.3745463378       -5.1529376097
 H         4.5199697579        2.2129883499       -4.2188669314
 H         3.8145835583       -0.5338692283       -7.4043554925
 H         4.8211865608        0.8973389575       -7.6697027774
 H         3.1266963947        0.8593409413       -7.9831134879
 H         3.5000304146       -4.7936485713       -1.9507292010
 H         5.1933631793       -4.4806952690       -1.3876625790
 H         4.6134523191       -5.9956399466       -2.2719702292
 H         6.3231844333       -4.5875727583       -5.1795985116
 H         5.6505596346       -6.2068863582       -4.6372762723
 H         6.8459101264       -5.3739185146       -3.6752478543
 H         1.0999011159       -6.1485570406       -8.4558334276
 H         0.9443632487       -6.2231357103      -10.1820822086
 H        -0.3279333120       -5.4104592718       -9.3935306023
 H         3.2648915069       -5.2764129418      -10.2360820503
 H         3.4104335806       -3.5888403231       -9.9932736397
 H         2.5333540068       -4.3175685994      -11.3833038636
 H        -4.6350932641       -0.1411951828      -10.0523339247
 H        -3.7117732771        1.3241268057      -10.2742028935
 H        -3.2948082056        0.2737477448       -8.9008433840
 H        -3.1189004673       -2.4197500505       -9.6349091821
 H        -3.1196933784       -2.8150407406      -11.4584163164
 H        -4.5588354352       -2.0592294060      -10.6211754085
 H        -4.0570474271        2.1436447013      -16.7062436803
 H        -4.9203979451        1.7313607854      -18.2610223516
 H        -4.2835927684        0.4473305468      -17.2897158582
 H        -5.8139632644        3.1979158315      -15.0287443248
 H        -7.4604753833        2.7380924869      -15.3373737158
 H        -6.7118987490        3.5152550995      -16.5160399713
 H       -10.7304052328       -2.2601800351      -16.2268428060
 H       -12.4340663100       -2.1499639331      -16.6472465836
 H       -11.3868126746       -0.6828061434      -16.2035661927
 H       -10.5164942081       -3.5222228066      -18.8076385374
 H       -11.0776949667       -2.5093347288      -20.0950622581
 H       -12.1318481431       -3.0931734348      -18.7868636645
 H       -15.3963796921        1.6938351233      -23.3844339019
 H       -15.2952525045        1.4823163497      -21.5898967980
 H       -16.1161929030        0.2616007147      -22.6614170074
 H       -13.8990849965        0.2299174330      -24.9598560235
 H       -15.0518010885       -0.9419318387      -24.2217953437
 H       -13.3408239811       -1.3231686361      -24.1888329642
 H        -9.6592044658        4.9451461450      -24.2176280312
 H        -9.0387880844        6.1146432469      -22.9872196071
 H       -10.7822912696        5.8364406066      -23.2774291894
 H        -8.3361349991        4.2620313612      -20.1880394476
 H        -8.1281931065        5.6899646665      -21.2786764663
 H        -7.7411914130        4.1238786703      -21.8196928021
 Na       -9.5270901454        2.1907909076      -19.4323654457
 Na        0.6051016153       -0.7561572228       -7.5469816690
