232

 C       -12.1223585366        5.6362702669      -20.6452641456
 C       -11.1612485022        4.4682739465      -20.7465726563
 O       -11.0987747100        3.7141188247      -19.7988259690
 C       -10.0917230568        4.4102206331      -21.8895300041
 C        -9.9601522642        2.8526699032      -22.3061779128
 O        -9.2915449025        2.1195665589      -21.5590855918
 C       -10.5595017525        2.2792204525      -23.6115469285
 C       -11.6059241183        1.1750100928      -23.3406826263
 C       -12.8963376523        1.5596724673      -22.6455566140
 O       -13.1073089205        2.6892778247      -22.2850154463
 C       -14.1224287118        0.4834341066      -22.4928679367
 C       -13.7026222833       -0.3806189590      -21.2966780387
 O       -12.7486130356       -1.1557520326      -21.4977726850
 C       -14.3053918078       -0.2079869782      -19.8979533620
 C       -13.5131393588       -0.8864855392      -18.8077597046
 C       -12.0086557667       -0.5439893467      -18.8699715043
 O       -11.6671818011        0.6051348299      -19.0948642685
 C       -10.9938543231       -1.6482535079      -18.4104476146
 C        -9.5014487843       -1.0237401670      -18.4539947132
 O        -9.2109421700       -0.5699136223      -19.5834434586
 C        -8.4316057212       -1.1398690924      -17.3038666927
 C        -7.1649508825       -0.2719390247      -17.5515047332
 C        -7.3203085639        1.1425730033      -16.9219166295
 O        -8.1523158037        2.0045111999      -17.2601885104
 C        -6.0829706204        1.6032095508      -16.0797827904
 C        -5.6615569500        0.6610215864      -14.8694947863
 O        -6.5690167396        0.0753302338      -14.3434243063
 C        -4.1766748090        0.6350809738      -14.3784823922
 C        -4.0586883723       -0.1471540498      -13.0547836676
 C        -2.7187829284       -0.0797331373      -12.3470499584
 O        -1.7769497565        0.5067136269      -12.8281541690
 C        -2.6615413395       -0.8622319381      -10.8751311262
 C        -1.1700508427       -0.9429930682      -10.4003862360
 O        -0.9683685970       -0.6005879651       -9.2443662053
 C        -0.1375577733       -1.3064399690      -11.4170214410
 C         1.0444630271       -2.1227008107      -10.7590064645
 C         0.7072696686       -3.5375630838      -10.4434573430
 O        -0.3705320489       -4.0240549106      -10.7156527554
 C         1.7105402493       -4.4875563930       -9.7950185723
 C         2.0127868186       -3.8824090003       -8.3849256557
 O         1.7873669720       -2.7319081019       -8.1251621807
 C         2.6720745733       -4.8169417063       -7.3069740565
 C         3.4794515571       -4.0515710223       -6.3172651941
 C         3.3235092730       -4.3498361378       -4.7445864893
 O         2.3541328814       -4.8336853333       -4.2967714359
 C         4.5753379755       -4.0546175056       -3.9123448172
 C         5.0710851516       -2.6297961236       -4.0161633086
 O         6.1102757242       -2.2653206259       -4.5060397697
 C         4.1332505978       -1.5545838313       -3.3448206849
 C         4.2559085221       -0.1324492464       -3.9641182080
 C         3.3420686516       -0.0007024223       -5.2253509395
 O         2.4979085804       -0.8857627159       -5.3097634140
 C         3.4482945065        1.2156716185       -6.2375602443
 C         2.1345512740        2.1126105373       -6.0812816227
 O         1.0801401075        1.8532465997       -6.6986018102
 C         2.1009138430        3.3072361141       -5.1497621552
 C         0.7129578571        3.5182053661       -4.6412085003
 C         0.2744751718        2.3655999536       -3.6224794533
 O         1.0797444900        1.4703958078       -3.3766146062
 C        -1.3160435488        2.3612334319       -3.2000749853
 C        -2.0482953996        1.5934659933       -4.4168018173
 O        -2.7510934152        2.1898656517       -5.1933957055
 C        -1.7436331825        0.0907268112       -4.5617658521
 C        -2.2979230165       -0.3552080893       -5.9495500330
 C        -1.7956560166       -1.8257080372       -6.0658787436
 O        -0.5597779878       -2.0044620279       -6.1880230548
 C        -2.7312461681       -3.0164670861       -5.6632576557
 C        -3.4368423191       -2.8262701319       -4.1928004643
 O        -4.6190332796       -2.6336108760       -4.1546117471
 C        -2.5320874222       -2.8073052427       -2.9430826282
 C        -2.6347580608       -4.0906672166       -2.0921389340
 C        -1.7810197060       -4.0356199621       -0.7661315144
 O        -2.1557019292       -3.3064589447        0.1159225460
 C        -0.6103133699       -4.9926559100       -0.5218501366
 C        -0.9361996519       -6.3816896872       -1.0992836513
 O        -1.1102069545       -6.4882041488       -2.2999200773
 C        -1.4332027900       -7.5092911803       -0.0562169646
 C        -1.1210862165       -8.9520372295       -0.5879907032
 C         0.3437340973       -9.2680964592       -0.7254931247
 O         1.1637274812       -8.3963129016       -0.6408617818
 C         0.8953973018      -10.8122266082       -0.6525296258
 C         0.0386009772      -11.6954315826       -1.6003271610
 O        -1.1961853020      -11.5381366082       -1.4522847529
 C         0.7313754818      -12.6843797596       -2.5969986224
 C         2.4376935026      -10.8958035139       -0.8262149249
 C         0.5762751910      -11.5119686382        0.7182039708
 C         0.6499501441       -4.6054389740       -1.2703666127
 C        -0.3078157214       -4.9816061110        1.0291353992
 C        -3.8944831191       -3.2393033132       -6.6738934288
 C        -1.8798569706       -4.3438901878       -5.7443115819
 C        -1.4256669480        1.4035356343       -1.9331280345
 C        -2.0840397057        3.6830669108       -2.9693515643
 C         4.7884173664        2.0844917502       -5.9897970150
 C         3.4650325766        0.7260944716       -7.6772967948
 C         4.1574862612       -4.4797162056       -2.5187666129
 C         5.6939112581       -5.1215782682       -4.2293435873
 C         1.2511347079       -5.9230489266       -9.8213710656
 C         3.1093136502       -4.4021807451      -10.5833940035
 C        -3.5334420534        0.0658261441       -9.8912847304
 C        -3.3244136225       -2.2523097359      -11.0003585659
 C        -4.8457465999        1.7186688246      -17.0980457489
 C        -6.3213260359        3.0062995023      -15.5218688843
 C       -11.2674827911       -2.2951348805      -17.0418225307
 C       -10.8692956687       -2.7424226424      -19.4886170772
 C       -15.4134261615        1.1899826116      -22.3385272577
 C       -14.1283933366       -0.5072910542      -23.6261799850
 C       -10.4125125724        5.4144709444      -23.0141722721
 C        -8.6656700358        4.7448021588      -21.1918681616
 H       -12.4176600642        5.6745403176      -21.7180866861
 H       -11.5810115256        6.6412222164      -20.3860668691
 H       -12.9362996583        5.4489134135      -19.9392368781
 H        -9.7193950766        1.7893952715      -24.0694152295
 H       -11.0115627064        3.1530948362      -24.1907127818
 H       -11.0045803338        0.3134654268      -22.8629967527
 H       -11.7788542283        0.7350057682      -24.3870969388
 H       -15.2633585967       -0.7722175542      -19.9198289164
 H       -14.3654323674        0.8541738741      -19.6713754305
 H       -13.5552683148       -1.9397766423      -18.7425429199
 H       -13.7510392535       -0.5353444905      -17.8146554587
 H        -8.3056726531       -2.1666953827      -17.1689380134
 H        -8.9333941355       -0.8479343561      -16.3761271647
 H        -7.1453770178       -0.0796380678      -18.5804065808
 H        -6.2453574002       -0.7922032146      -17.2369011852
 H        -3.9195482314        1.6650623904      -14.2311816504
 H        -3.6082864306        0.1702018701      -15.2337978936
 H        -4.2721932322       -1.2080830351      -13.2947988052
 H        -4.7648518933        0.4086667832      -12.4407194336
 H         0.3817402514       -0.3191531844      -11.6224904980
 H        -0.5018113370       -1.7155560031      -12.3135568333
 H         1.4478229987       -1.4927336423       -9.9348118514
 H         1.8550257314       -1.9754633611      -11.4714209513
 H         3.2402178946       -5.5924634911       -7.9268853515
 H         1.9445614814       -5.3954879990       -6.8928263333
 H         3.2095908475       -2.9643560896       -6.4305653507
 H         4.4927460212       -4.1337555045       -6.5575245034
 H         4.5604176747       -1.5724929340       -2.3530975507
 H         3.1391029606       -1.9315360307       -3.4262110199
 H         5.3023029576        0.0823484590       -4.1675278255
 H         4.0641359226        0.6223926876       -3.1704828419
 H         2.2293377947        4.0525989759       -5.8957953713
 H         2.6832859281        3.5590906081       -4.2241734586
 H         0.0407445798        3.5391923270       -5.5219662307
 H         0.6994931646        4.4761217761       -4.1202579758
 H        -2.2543165909       -0.4191767313       -3.7207645451
 H        -0.6335224842        0.0768375952       -4.5317122858
 H        -2.0028344873        0.3273570897       -6.7210871331
 H        -3.3854402732       -0.4056687739       -5.9896990047
 H        -2.7893414316       -1.9055625038       -2.3891049576
 H        -1.4923806598       -2.5557315431       -3.1410566270
 H        -2.1317766454       -4.8510548572       -2.7089683191
 H        -3.6906292508       -4.2568068061       -1.7925952140
 H        -2.5569463028       -7.2821570790        0.0864465260
 H        -1.0150947327       -7.4997253558        0.9763586958
 H        -1.5685140256       -9.0612400927       -1.6022706598
 H        -1.4724355081       -9.6874121602        0.0795893682
 H         0.9220531001      -13.6253471622       -2.1273088785
 H         1.6052109836      -12.2805599126       -3.1308027797
 H         0.0678130359      -12.8487878096       -3.4620268880
 H         2.9374218483      -10.4464090186        0.0490485348
 H         2.8508428815      -10.2545125155       -1.6319580973
 H         2.8144343749      -11.9281647628       -0.9640914047
 H         1.2162106414      -12.3642396079        0.7901157908
 H        -0.4905960567      -11.8361971387        0.8970863090
 H         0.9989021003      -10.7871962770        1.4294780279
 H         1.3870096337       -5.3957301009       -1.1733828930
 H         1.0744693876       -3.6599644876       -0.7954607586
 H         0.5087663942       -4.5596647387       -2.3305870254
 H        -0.1483785433       -3.9229043164        1.2919618620
 H         0.4811617680       -5.7112156595        1.3751070305
 H        -1.2962312101       -5.2831962127        1.4757954360
 H        -4.4876623642       -2.3343577733       -6.7035043583
 H        -4.5269773298       -4.0414252447       -6.2941326995
 H        -3.3938103604       -3.4805161630       -7.5683339134
 H        -2.4430828840       -5.2663485875       -5.6610277055
 H        -1.2271474819       -4.3175642088       -4.8978905048
 H        -1.3908659538       -4.3108641778       -6.6585671830
 H        -2.4790101213        1.1068507274       -1.8698360144
 H        -1.2623548977        2.0313732005       -1.0319846222
 H        -0.7489995137        0.5300844507       -1.9766803236
 H        -1.9881699306        4.2906668108       -3.7985737342
 H        -1.6254557817        4.1752482553       -2.0648160011
 H        -3.1375372971        3.4898075851       -2.8536346103
 H         4.7974096816        2.8222319848       -6.6772540743
 H         5.6106776034        1.4808546115       -6.3515655873
 H         4.9789739744        2.5018459369       -4.9669325841
 H         3.6041470661        1.5825592427       -8.3075570140
 H         2.4770288099        0.4500739215       -8.0047295179
 H         4.0761601110       -0.1145126515       -7.8957789332
 H         3.2357462377       -4.0181044348       -2.1409273905
 H         4.9861659442       -4.2318021480       -1.8563682811
 H         3.9706417603       -5.5251502741       -2.4974010181
 H         6.7691554732       -4.8553072479       -3.9243695869
 H         5.7643199470       -5.1695968171       -5.2873193144
 H         5.4214589843       -6.0087824695       -3.7933637000
 H         2.0574245822       -6.7062718050       -9.7440638024
 H         0.6202709590       -6.0498467590      -10.6267535845
 H         0.6912808741       -6.0567694658       -8.8915571316
 H         3.6630520540       -5.2677472846      -10.3617932791
 H         3.7058027761       -3.4953361784      -10.2598504898
 H         2.8657729949       -4.4228512879      -11.6390419025
 H        -4.5263435833        0.2937930481      -10.2199334630
 H        -2.9598971237        1.0090167162       -9.6723282466
 H        -3.6777367909       -0.5094772430       -8.9418755523
 H        -3.1646884785       -2.8631858026      -10.1606450223
 H        -2.8496830660       -2.8088658549      -11.8401571853
 H        -4.3821983459       -2.1459499459      -11.2046059704
 H        -4.1547220433        2.4208275216      -16.7712078814
 H        -5.1271204856        2.0613194535      -18.1379350254
 H        -4.4322065663        0.6781594288      -17.1448840085
 H        -5.6960056145        3.3184817279      -14.6973867972
 H        -7.2927591593        3.1519321846      -15.2209570458
 H        -6.2295261987        3.8089195149      -16.2473223185
 H       -10.5034602946       -3.0836986017      -16.7068067095
 H       -12.1845226151       -2.8198226041      -17.1384093577
 H       -11.2616981211       -1.6056756854      -16.2380343567
 H       -10.0115048443       -3.4049584017      -19.2063186798
 H       -10.6656232155       -2.3383658717      -20.4941952386
 H       -11.7707916392       -3.3484480869      -19.5624362229
 H       -15.6699047214        1.7849168158      -23.2424104426
 H       -15.3519907262        1.7005779725      -21.4471109713
 H       -16.1158971727        0.3792840820      -22.1893517933
 H       -13.8221869621       -0.2040790471      -24.6390432666
 H       -15.1207033914       -0.7872406023      -23.7213567450
 H       -13.3747682725       -1.2978094520      -23.5104198002
 H        -9.7867015577        5.2438420010      -23.8437244148
 H       -10.3000418019        6.4347590761      -22.7627323527
 H       -11.4752217389        5.4328838317      -23.3034712589
 H        -8.6839749034        5.4676964961      -20.4287342109
 H        -7.9340297191        5.0796560943      -21.9324634026
 H        -8.2507906684        3.7966030842      -20.7273648661
 Na       -9.6810272312        1.8826890011      -19.3534942075
 Na        0.9832624837       -0.8436871209       -7.2570402302
