232

 C       -12.1230575308        5.7390198032      -20.6230267910
 C       -11.1641096005        4.4865372079      -20.5986252404
 O       -11.1650603709        3.7272064952      -19.6518326501
 C       -10.1447200571        4.3697721768      -21.8194004898
 C        -9.9786449781        2.8491100210      -22.2014470799
 O        -9.3553434063        1.9761210085      -21.6228752518
 C       -10.6931452412        2.3937606669      -23.5442586425
 C       -11.6024538775        1.1479496000      -23.3596724293
 C       -12.9661889756        1.6072230986      -22.7698735848
 O       -13.0936875040        2.7076084557      -22.3030886408
 C       -14.1251639387        0.4918828032      -22.4806916246
 C       -13.4696442180       -0.3661374090      -21.2969196422
 O       -12.6493987927       -1.2313898117      -21.4501045417
 C       -14.2117603684       -0.2170259444      -19.9043515047
 C       -13.5392387559       -0.9102718577      -18.7442926144
 C       -11.9966837991       -0.5665787208      -18.7572225751
 O       -11.6642699261        0.5412680030      -19.0647520904
 C       -10.8796447751       -1.7104524248      -18.4277850832
 C        -9.4514616139       -1.0775501533      -18.4759872017
 O        -9.1002817687       -0.5741876885      -19.5600460184
 C        -8.5500381634       -0.9150652611      -17.2701385264
 C        -7.2759854724       -0.1127344418      -17.5855869706
 C        -7.1974215683        1.2537868731      -16.9620806569
 O        -8.1046641794        2.0376053776      -17.2643085260
 C        -6.0235056970        1.7392692052      -16.0781034573
 C        -5.6047310996        0.7196477889      -14.8419397600
 O        -6.4577683981        0.0146026580      -14.3383516092
 C        -4.1866493638        0.6829991447      -14.3549237034
 C        -4.1472623653       -0.1753095064      -13.0339200262
 C        -2.7310738412       -0.1133911374      -12.3529632986
 O        -1.8135331069        0.5703467529      -12.7557975358
 C        -2.6254008457       -0.8258489675      -10.9249527940
 C        -1.1232506107       -0.9312526037      -10.3293352264
 O        -0.8387072606       -0.6434717392       -9.1530575064
 C        -0.1400616224       -1.3552744848      -11.3685380179
 C         1.1422233571       -2.1510837739      -10.8803403783
 C         0.7210204499       -3.6077266577      -10.6692657805
 O        -0.3755802160       -4.0787440284      -10.8453645343
 C         1.8154646130       -4.4893610929       -9.8596030122
 C         2.1342550710       -3.9422624944       -8.4791289832
 O         1.7899168453       -2.8066832653       -8.0935277768
 C         2.7019809088       -4.8710166810       -7.3059589356
 C         3.3796468670       -3.9044980611       -6.3543296966
 C         3.3888917736       -4.4799882462       -4.8134466561
 O         2.3311362387       -4.9285536149       -4.3505686560
 C         4.5414979854       -4.0987979516       -3.9001588730
 C         4.9649080734       -2.6184838781       -3.9971925115
 O         5.9923473515       -2.3623505268       -4.6097367780
 C         4.1391986223       -1.4153957890       -3.3168384179
 C         4.2988630602       -0.0652991633       -4.0577933647
 C         3.3964097535        0.0618442939       -5.3266477961
 O         2.5171927032       -0.7610924295       -5.5577270357
 C         3.4263905323        1.2327100826       -6.3020836480
 C         2.1221757057        2.1094206219       -6.1627201907
 O         1.1785574523        1.6488954156       -6.7343288060
 C         2.1077297688        3.3742531651       -5.2145472352
 C         0.6854073509        3.5521095731       -4.6030494334
 C         0.1409156466        2.4054017338       -3.6181130396
 O         0.8606495871        1.3999155070       -3.4790369120
 C        -1.3514740691        2.3938165313       -3.1879093128
 C        -1.9963732707        1.6477187887       -4.4098260202
 O        -2.7206903136        2.2317958870       -5.1967531336
 C        -1.6303005758        0.1641840116       -4.5862282949
 C        -2.3856496927       -0.3539639351       -5.8630095631
 C        -1.8781815006       -1.8376873123       -5.9213403517
 O        -0.6846539069       -2.0394335426       -6.0246608630
 C        -2.6979264521       -3.0256807189       -5.7562235800
 C        -3.2860167883       -2.8595311302       -4.2171051279
 O        -4.4740063891       -2.8500930707       -4.1184920338
 C        -2.3548123217       -2.8604453220       -2.9864983975
 C        -2.6940805736       -4.0723876337       -2.0315173101
 C        -1.8669849672       -3.9724010676       -0.6925524700
 O        -2.2549657203       -3.2224931095        0.1767551062
 C        -0.6731021228       -4.9742328964       -0.4111181193
 C        -1.0339667981       -6.4459876111       -0.9998998778
 O        -1.0245774846       -6.5123904905       -2.2303118558
 C        -1.1901005725       -7.6501910566       -0.1287251473
 C        -1.0799008886       -9.1021570568       -0.6409757456
 C         0.4264922123       -9.3825177314       -0.5876868695
 O         1.2355964468       -8.4815519059       -0.5603679921
 C         0.9158329576      -10.8525209427       -0.6142464988
 C         0.0286500858      -11.7167581614       -1.6746033088
 O        -1.1819437596      -11.6678430702       -1.5946973493
 C         0.5987245814      -12.6344823946       -2.6965988689
 C         2.4070520452      -10.8823556280       -0.8473804831
 C         0.5772584584      -11.4015691779        0.7947696157
 C         0.6821220033       -4.5146988879       -1.2126818321
 C        -0.4939637087       -4.9926808714        1.1817889193
 C        -3.9785397580       -3.1848611727       -6.7756297839
 C        -1.8515167774       -4.2522617323       -5.6885815032
 C        -1.4730802069        1.4403376070       -1.9560721250
 C        -2.0248092425        3.7096041055       -2.9377781393
 C         4.6993374146        2.1264442471       -6.0088209876
 C         3.5259318944        0.7770189856       -7.8123272618
 C         4.1362064585       -4.3652579157       -2.3931751792
 C         5.8152051870       -4.9643602619       -4.3237561396
 C         1.3229298618       -5.9118907074       -9.6344464678
 C         3.2295400030       -4.3741919704      -10.8474445581
 C        -3.4035991966       -0.0035413275       -9.9066815713
 C        -3.2610033673       -2.2152657781      -10.9944229477
 C        -4.8814491476        1.6673302795      -17.1471134166
 C        -6.4649712909        3.1154201093      -15.5186655907
 C       -11.4115578334       -2.3785967205      -17.1193736349
 C       -10.8753845223       -2.8300463124      -19.5679626976
 C       -15.4652372192        1.3153334876      -22.1988082315
 C       -14.2595347909       -0.5132956124      -23.6455765271
 C       -10.4246762961        5.2259499370      -23.0440147189
 C        -8.7931730283        4.8682897750      -21.1689842932
 H       -12.4866325978        5.8486535453      -21.6773964490
 H       -11.6186349105        6.6703948287      -20.3340576287
 H       -12.9523351342        5.5456276691      -19.8831512589
 H        -9.7825974154        2.1551676650      -24.1224611871
 H       -11.2955651649        3.1727783830      -23.9342503715
 H       -10.9939353975        0.3807827909      -22.7961397335
 H       -11.7097949051        0.6555484576      -24.3505190191
 H       -15.1977680666       -0.7354191979      -20.0203664172
 H       -14.2348153295        0.8497799090      -19.6678707870
 H       -13.5357920249       -2.0011536691      -18.7927282865
 H       -13.8590133388       -0.6625669136      -17.7492332962
 H        -8.2687672650       -1.9117584121      -17.0407367569
 H        -9.1110740170       -0.5922380471      -16.3748617444
 H        -7.1714453729       -0.0221041211      -18.6683016893
 H        -6.5203742242       -0.7068269624      -17.2240901522
 H        -3.7876006490        1.6959354517      -14.2614338950
 H        -3.7317427687        0.0874813571      -15.1846020433
 H        -4.4033532637       -1.1578661396      -13.3130006705
 H        -4.8106860069        0.3703345348      -12.3889389349
 H         0.1184474235       -0.4388358487      -11.9250588907
 H        -0.6792089734       -1.9698732642      -12.0560753604
 H         1.5892560103       -1.7020242652       -9.9290206239
 H         1.9414694072       -1.9400388804      -11.5563061400
 H         3.3386622255       -5.7571983847       -7.7908199899
 H         1.8015915245       -5.4660361580       -6.8800530380
 H         2.8656730602       -2.9052530788       -6.3700003311
 H         4.4113154196       -3.7662012966       -6.6761868374
 H         4.5493090169       -1.3562302124       -2.3234684148
 H         3.1298615182       -1.7498358103       -3.3896754514
 H         5.3501132202        0.0214038233       -4.3660200266
 H         4.2333948000        0.7927976683       -3.3148642585
 H         2.2802541246        4.2132219072       -5.8710841253
 H         2.7119741601        3.4814998234       -4.3448147162
 H         0.0207356098        3.5586717185       -5.4470197015
 H         0.6247560482        4.5219238534       -4.0903910290
 H        -2.0295844621       -0.3362798842       -3.6706000713
 H        -0.5702412035        0.1383062842       -4.7040608356
 H        -2.0039678800        0.1685451774       -6.7641301670
 H        -3.4890769225       -0.2138265054       -5.9146382468
 H        -2.5912599873       -1.9690677589       -2.3878411811
 H        -1.3124944126       -2.6724951975       -3.1397736740
 H        -2.2889006803       -4.9775815258       -2.4777349677
 H        -3.7394606057       -4.0416574865       -1.8185227293
 H        -2.1501609775       -7.4025350216        0.2685611820
 H        -0.5457036501       -7.6446198024        0.7349239044
 H        -1.5427753224       -9.2285979794       -1.6009357424
 H        -1.5119618988       -9.7767135927        0.0672707663
 H         0.8216276082      -13.6210122291       -2.1992310514
 H         1.4170788895      -12.2541412582       -3.3069742313
 H        -0.1774787651      -12.7892028593       -3.4492124011
 H         2.9013189680      -10.1175741697       -0.2551805928
 H         2.6805335023      -10.5314996032       -1.8789429413
 H         2.8571679174      -11.8656500363       -0.6867304161
 H         0.9635196720      -12.4392021570        0.8379140448
 H        -0.5307994247      -11.4413353200        0.9373835199
 H         1.0946112917      -10.7869651930        1.5178230320
 H         1.5787591784       -5.1406710019       -1.0932714259
 H         0.9159113154       -3.4410923148       -0.8854442826
 H         0.4712564727       -4.6136926482       -2.2515148828
 H        -0.4245127267       -3.8887731037        1.4170817033
 H         0.3192666697       -5.6036074874        1.6073310578
 H        -1.5250682608       -5.3491600897        1.6023710360
 H        -4.1796341820       -2.1545246805       -6.9569113123
 H        -4.8080347869       -3.5805881352       -6.3263871095
 H        -3.6324612856       -3.7377756670       -7.6545786627
 H        -2.5359912634       -5.0258475068       -5.3719010552
 H        -1.1897647400       -4.1823096256       -4.8559935965
 H        -1.3809667874       -4.4870519944       -6.6725521958
 H        -2.5036645196        1.0901617321       -1.7922204882
 H        -1.2299905622        2.0662255216       -1.0732565493
 H        -0.7654989634        0.6480112000       -2.0583954297
 H        -1.7900261733        4.3357742254       -3.7568682540
 H        -1.8668020746        4.1509525639       -1.9559517047
 H        -3.0905939095        3.4751583692       -3.0698825870
 H         4.7576424460        2.9273656938       -6.8001869723
 H         5.5653809930        1.5194350080       -6.2527158780
 H         4.7336164570        2.5481252505       -4.9948456287
 H         3.3851675279        1.6713765531       -8.4065260997
 H         2.7282993316        0.0464189002       -8.1834457244
 H         4.4451813220        0.2475098292       -8.0128443652
 H         3.2798923990       -3.7691833179       -2.2036954032
 H         4.8953427012       -3.9196376662       -1.7616852780
 H         3.9570641680       -5.3996319353       -2.0838756904
 H         6.7006561453       -4.8827854636       -3.7399983685
 H         6.0688633663       -4.5927830543       -5.2617277518
 H         5.5028748715       -6.0520269909       -4.3595726491
 H         2.0847919098       -6.5808021044       -9.3814658559
 H         0.8125996949       -6.2200063007      -10.5647797605
 H         0.6988293690       -5.9109782384       -8.7543014073
 H         4.0133718393       -5.0713646941      -10.5848975807
 H         3.5751126006       -3.3152555801      -10.6146378959
 H         2.8714065843       -4.4184570725      -11.9154378885
 H        -4.4792102143       -0.0426455109      -10.0258537806
 H        -3.0624197109        1.0133418933       -9.7661875783
 H        -3.2691923155       -0.6252872714       -8.9701498789
 H        -2.8460747572       -2.8846295771      -10.2891484843
 H        -3.0315837585       -2.7042921030      -11.9388062029
 H        -4.3016519655       -2.2134829892      -10.8514488351
 H        -4.0490272147        2.3851981688      -17.1272075710
 H        -5.3735824892        1.8857112701      -18.1032344006
 H        -4.5487931297        0.6338840480      -17.1497615331
 H        -5.7474367658        3.5841453066      -14.7961318018
 H        -7.3828885820        2.9940672559      -14.9391063214
 H        -6.6486506293        3.9845632881      -16.1938583438
 H       -10.9259810082       -3.1875215438      -16.7005368566
 H       -12.4829558727       -2.7017479517      -17.4382727247
 H       -11.5311035466       -1.6369449581      -16.3394286087
 H       -10.2013701137       -3.6110383460      -19.1392264106
 H       -10.5379196121       -2.6251323650      -20.5412954385
 H       -11.9773762785       -3.3056713288      -19.6273411391
 H       -15.5283143653        2.0484059929      -23.0057084021
 H       -15.5002449977        1.7276546891      -21.2104080363
 H       -16.2426039389        0.5713845243      -22.3155665479
 H       -13.9794485979       -0.0117678421      -24.6019321030
 H       -15.3078082577       -0.7224418470      -23.7764217737
 H       -13.5829454490       -1.3415909593      -23.6995373057
 H        -9.9351442674        4.8405312993      -23.9768994858
 H       -10.1112505669        6.2359488961      -22.9455798692
 H       -11.4222479229        5.4161214516      -23.1705287585
 H        -8.9133230065        5.2361884410      -20.1281566912
 H        -8.5703846414        5.7772956779      -21.7179066664
 H        -7.9009557112        4.2385402130      -21.1754648974
 Na       -9.5394766186        1.7552761125      -19.2210861074
 Na        0.7876786528       -0.8546134064       -7.2279666251
