232

 C       -12.1960248705        5.5010406440      -20.3007320830
 C       -11.2313251110        4.3677027692      -20.4468422234
 O       -11.0039311615        3.6566578265      -19.5116455598
 C       -10.1923517418        4.3162850144      -21.6379522872
 C       -10.1938093992        2.7914459592      -22.1392421154
 O        -9.8343041432        2.0154781809      -21.2691593161
 C       -10.6118317398        2.1578474113      -23.5505813751
 C       -11.6678320361        1.0716265377      -23.3002317961
 C       -12.9647581885        1.6670988667      -22.6876049933
 O       -13.1108238818        2.8116212042      -22.3730654076
 C       -14.1467235008        0.5962019869      -22.4331866357
 C       -13.5339800549       -0.2963105264      -21.2311683543
 O       -12.5794306729       -0.9964582673      -21.4972375061
 C       -14.0684621740       -0.1458373005      -19.8177624444
 C       -13.3577081790       -1.0780899609      -18.8320280023
 C       -11.8791727497       -0.7101864013      -18.7178767980
 O       -11.5561705820        0.4390071501      -18.8058257879
 C       -10.8248439540       -1.8368328188      -18.5098021288
 C        -9.4651113546       -1.0970269136      -18.4856062277
 O        -8.8547433295       -0.7425899943      -19.5296396999
 C        -8.9107616195       -0.5886792079      -17.1581365478
 C        -7.4261972100       -0.2088652957      -17.1278514980
 C        -7.1925717518        1.2548653219      -16.8644531935
 O        -7.9064291267        2.1595691845      -17.3275018023
 C        -5.9092879989        1.8234008614      -16.0910518537
 C        -5.6615242942        0.7776663284      -14.8758262847
 O        -6.5592088513       -0.0163954070      -14.6118972169
 C        -4.3536705827        0.9101529122      -14.1044544745
 C        -4.1737639970       -0.0403505062      -12.9061872820
 C        -2.7547185193        0.0504631659      -12.1779936296
 O        -1.9202859804        0.7690161305      -12.6803058132
 C        -2.5497951597       -0.7880560650      -10.8697187912
 C        -0.9778044467       -0.8725757779      -10.5579164566
 O        -0.6416977778       -0.8435588159       -9.3781780828
 C        -0.0538012508       -1.4036805193      -11.6644834478
 C         1.0995017680       -2.2958498535      -11.1438059756
 C         0.8588502215       -3.7929389296      -10.8279667087
 O        -0.1847239573       -4.2893273358      -11.1574858046
 C         1.9857984569       -4.5028786303       -9.9931869738
 C         2.1408899393       -3.7626283077       -8.5732649779
 O         1.8540421040       -2.6018679992       -8.3383734797
 C         2.8896325929       -4.6263790872       -7.4276964438
 C         3.4894560245       -3.7597113262       -6.3583316807
 C         3.4987233974       -4.3602372865       -4.8790247301
 O         2.6577515610       -5.1768595772       -4.5606653646
 C         4.5750179538       -3.8985856129       -3.8129553180
 C         4.8556847410       -2.4242275160       -4.2066652339
 O         5.5953829662       -2.2275264043       -5.1632518675
 C         3.9432728125       -1.2989075334       -3.6265412970
 C         4.2110204744        0.0662749199       -4.3860493543
 C         3.4347855218        0.0960310003       -5.7287484455
 O         2.7109607106       -0.8408400854       -6.0012677003
 C         3.3886503637        1.4078286546       -6.5097604102
 C         2.0332583390        1.9982162869       -6.2082870013
 O         0.9726511731        1.5204840338       -6.5752733416
 C         2.0080317333        3.1961191479       -5.3752106120
 C         0.5921264535        3.5533235501       -4.9384426092
 C         0.1225940084        2.4298197141       -3.7632583145
 O         0.8333504748        1.4280139175       -3.5145069871
 C        -1.3369727758        2.4723123657       -3.2726193370
 C        -2.1142558089        1.9057419710       -4.5252343254
 O        -2.8281394639        2.5541320831       -5.2735625648
 C        -1.6825194758        0.3118190697       -4.6917525803
 C        -2.4841339697       -0.5745936719       -5.6476779230
 C        -1.8418620164       -2.0255200637       -5.7761210115
 O        -0.6097122461       -2.1500021672       -5.9236840076
 C        -2.7610813796       -3.2339069266       -5.6559775158
 C        -3.2191093410       -3.2808067330       -4.1008390068
 O        -4.4003155901       -3.1993904705       -3.9806284099
 C        -2.2731990351       -3.3468066935       -2.9242997551
 C        -2.7758352462       -4.3648812774       -1.8390738618
 C        -2.1226205778       -4.0646432948       -0.4612554081
 O        -2.3886055366       -3.0180924219        0.1068940396
 C        -0.8696736962       -4.9869422184       -0.1284171923
 C        -0.9300965903       -6.4394544788       -0.7520409233
 O        -0.9920336666       -6.4888916625       -1.9849639668
 C        -1.0680217005       -7.7469795573        0.1018841078
 C        -0.8416827498       -9.0862417610       -0.6437038766
 C         0.6823332918       -9.4824735387       -0.5942410528
 O         1.5300464206       -8.6401895167       -0.4044931622
 C         0.9000892172      -11.0630402108       -0.6974318310
 C        -0.0603397592      -11.6570141700       -1.7927019023
 O        -1.2604879541      -11.7890402429       -1.5956042820
 C         0.6039578990      -12.5135861807       -2.9513012611
 C         2.4543563436      -11.3982199381       -0.9149774583
 C         0.5578385418      -11.5900453627        0.7309348685
 C         0.3375533037       -4.2182803007       -0.8386916312
 C        -0.8976602012       -4.9968908136        1.4905822631
 C        -4.0082957068       -3.0459713954       -6.6256585647
 C        -2.1113496671       -4.5913309668       -5.8993443257
 C        -1.4926174914        1.7587029613       -1.9604909879
 C        -1.8054454168        3.9485664166       -3.0501280091
 C         4.4980692169        2.3938333439       -5.9641440870
 C         3.7533597790        1.0807436700       -8.0555175876
 C         4.0373003755       -4.0676182921       -2.4276460000
 C         5.6941343233       -4.9808536463       -4.2167830632
 C         1.4202017115       -5.9735536863       -9.8134148571
 C         3.4613057719       -4.5249379155      -10.6357777085
 C        -3.2419265381       -0.0769458632       -9.7686442370
 C        -3.1487168041       -2.2491666020      -10.9102993224
 C        -4.6921977898        2.0079776679      -17.1092578677
 C        -6.1876287564        3.1649480251      -15.3125053201
 C       -11.1190638121       -2.5868828767      -17.0399966535
 C       -10.8072431146       -2.9403402883      -19.6609822857
 C       -15.5119859222        1.2744790389      -21.9008257301
 C       -14.4274546813       -0.2390238962      -23.6916823378
 C       -10.6026217455        5.4108936293      -22.6634039798
 C        -8.7229197090        4.5719060841      -21.1606329261
 H       -13.0250318688        5.1687040890      -20.9189009696
 H       -11.8026947123        6.4671067520      -20.6564903670
 H       -12.5900897357        5.4364635036      -19.2960485711
 H        -9.6309101624        1.7253455123      -23.7993204118
 H       -10.9862079469        2.8921815724      -24.3121538970
 H       -11.2653756157        0.3302300536      -22.5452917222
 H       -11.7208253756        0.5117428772      -24.2488912119
 H       -15.1145800334       -0.4909377740      -19.7296290985
 H       -13.9073133016        0.8665412215      -19.5062565250
 H       -13.3839207823       -2.1431277358      -18.9336558714
 H       -13.7364569003       -0.8782628356      -17.8351437939
 H        -9.0662329442       -1.3776529296      -16.4937258678
 H        -9.5535119649        0.2718657438      -16.8057057447
 H        -7.0125922506       -0.4410719080      -18.1484809262
 H        -6.9396641677       -0.9009984664      -16.4418848365
 H        -4.3195010508        1.9288116575      -13.8189053756
 H        -3.5328398706        0.6375267709      -14.8204659608
 H        -4.1946945093       -1.0852765259      -13.3289671535
 H        -4.9807332692        0.2043707140      -12.1702099879
 H         0.1907478076       -0.4954948980      -12.3436627217
 H        -0.6308616047       -1.9867276390      -12.3357472726
 H         1.5266847979       -1.6843362941      -10.3052623798
 H         1.9555390526       -2.2639079187      -11.7965672619
 H         3.6384344611       -5.2368208923       -7.9907862662
 H         2.2240463888       -5.3103038829       -7.1521419182
 H         2.9782979704       -2.7774880921       -6.3204440082
 H         4.4480391204       -3.5900449243       -6.6567171498
 H         4.1850124399       -1.2873592885       -2.5400832553
 H         2.9424563361       -1.7092641684       -3.8319528769
 H         5.2693999852        0.1642322636       -4.5016636127
 H         3.9668542582        0.8934815837       -3.6951946626
 H         2.2309659071        4.1369332773       -5.8389089787
 H         2.6048844401        3.2020050138       -4.4082053673
 H         0.0314503002        3.7464882316       -5.8873576691
 H         0.6449977777        4.5278867893       -4.4187096052
 H        -1.8390949861       -0.0927451182       -3.6665960574
 H        -0.6110111693        0.4030469893       -4.9113824089
 H        -2.6723496755       -0.1686515797       -6.5939335874
 H        -3.4842656080       -0.7467614387       -5.2777692476
 H        -2.4002527392       -2.3970407716       -2.3487486898
 H        -1.1714495339       -3.3426749414       -3.1013313678
 H        -2.8079564893       -5.4497996405       -2.1869817377
 H        -3.8491324604       -4.0533989686       -1.5979101992
 H        -2.1768244120       -7.7836001001        0.4507132485
 H        -0.4181649492       -7.7634511258        1.0279240917
 H        -1.2170343685       -8.8500193562       -1.7075583105
 H        -1.5309547297       -9.8355799437       -0.2743724396
 H         1.4986203682      -12.9523985433       -2.5686343221
 H         0.8817894464      -11.9736467695       -3.8534475303
 H         0.0020581425      -13.3603723922       -3.2624953604
 H         3.0587116582      -10.9583076162       -0.1463881999
 H         2.8224047672      -11.0223055165       -1.8796847134
 H         2.6181720625      -12.4564829632       -0.9310922477
 H         0.6253956024      -12.6498253866        0.7290847508
 H        -0.4653586859      -11.2385487903        1.0132369256
 H         1.2142214167      -11.0457717454        1.3867044312
 H         1.2365136707       -4.6341135603       -0.4315122884
 H         0.3622301164       -3.1480982441       -0.4208487704
 H         0.3673002382       -4.3175977721       -1.8665275221
 H        -0.8752675124       -3.9953736050        1.7991676929
 H        -0.0053917280       -5.4242565531        1.7804783827
 H        -1.7529465723       -5.5841251854        1.8131548533
 H        -3.8481605877       -2.1070965505       -7.2279864378
 H        -4.8573685460       -2.9284582723       -5.9383063645
 H        -4.1728915991       -3.9756249160       -7.1987203978
 H        -2.7125850458       -5.4042399804       -5.4988589456
 H        -1.1723492434       -4.6094658908       -5.3568340615
 H        -1.9043920111       -4.6499392076       -6.9556980737
 H        -2.5473366634        1.7158215924       -1.7020116644
 H        -0.9653390019        2.2606269515       -1.1239551106
 H        -1.0468162894        0.7928674292       -2.0786642336
 H        -1.9201546397        4.3841794519       -3.9798613121
 H        -1.0412674361        4.4259897839       -2.3639635103
 H        -2.6777871983        4.0212064560       -2.3894178043
 H         4.4308341136        3.3186417705       -6.4608642861
 H         5.3915274778        1.9120565228       -6.2679209287
 H         4.4508196714        2.6102666738       -4.8913566821
 H         3.5621012677        1.9155916446       -8.6916306773
 H         3.2756840669        0.1548499069       -8.4644842336
 H         4.7789591396        0.8547261906       -8.0760277643
 H         3.2725953360       -3.3425342863       -2.0802483800
 H         4.8457238607       -3.9529226889       -1.6454894445
 H         3.7639738186       -5.1102503759       -2.3557842658
 H         6.3365945963       -5.3332895226       -3.3493805316
 H         6.3188481544       -4.5183285058       -4.9664937632
 H         5.2406379070       -5.8747304241       -4.7200962897
 H         2.1289789563       -6.5280521030       -9.1603871280
 H         1.6144078175       -6.3873460963      -10.7798082901
 H         0.4277451688       -6.1902740690       -9.3841341734
 H         4.0399753585       -5.0100585955       -9.9720475367
 H         3.7793606886       -3.4653757979      -10.6957894455
 H         3.4286166134       -4.8277727747      -11.6449381943
 H        -4.2655943676       -0.2586332583       -9.8092080681
 H        -3.0581771289        0.9922420776       -9.8768601818
 H        -2.9394889461       -0.3975616725       -8.7443811264
 H        -3.1887592771       -2.8123531423       -9.9889757374
 H        -2.6894767953       -2.9857342977      -11.6899651142
 H        -4.2258500055       -2.1270480076      -11.1569323953
 H        -3.7947258036        1.7653480473      -16.6069228838
 H        -4.6357558656        3.0600074209      -17.4681794182
 H        -4.7041592613        1.1918814893      -17.8361759255
 H        -5.3142686428        3.7387328693      -15.1480184567
 H        -6.6349648916        3.0663241651      -14.4107807737
 H        -6.6685565387        3.9076652326      -15.9132650188
 H       -10.3073227720       -3.2702094800      -16.8225732611
 H       -12.1188332421       -3.1558877835      -17.0634278506
 H       -11.3096824568       -1.9026177130      -16.2424769625
 H       -10.1122389136       -3.6909885452      -19.3840928912
 H       -10.4352533734       -2.5920474844      -20.5291638552
 H       -11.8755184939       -3.2987978501      -19.9379538883
 H       -16.0194657208        1.5765959847      -22.8600566906
 H       -15.2325535001        2.1545139560      -21.3941229105
 H       -16.1758914035        0.6095927422      -21.3055831601
 H       -14.9875461591        0.4213613163      -24.4220185365
 H       -15.0002539676       -1.1255199869      -23.5574842264
 H       -13.5070616262       -0.5734324707      -24.2457318890
 H        -9.9900450788        5.3978679638      -23.6011390667
 H       -10.5417825964        6.4033922975      -22.2017162988
 H       -11.6346042890        5.3640305429      -22.9959838692
 H        -8.0908166864        3.7893141967      -21.4658314345
 H        -8.5189965596        4.8082802254      -20.1327516477
 H        -8.4020729385        5.4339676782      -21.8109255264
 Na       -9.6370577903        1.8260748380      -19.1383684394
 Na        0.5981490774       -0.6848753556       -7.4890566511
