232

 C       -12.3552269398        5.1948716230      -20.2429474317
 C       -11.0853311168        4.3563014221      -20.1984539647
 O       -10.8678146531        3.6377541897      -19.1989584565
 C       -10.2730764036        4.2096028559      -21.4873992776
 C       -10.3507297476        2.7146867632      -22.0007026726
 O        -9.9836315113        1.7990272160      -21.2651632884
 C       -10.6701126756        2.4756591180      -23.4816747793
 C       -11.7433833177        1.2903841580      -23.4831328902
 C       -12.9884935430        1.7445935029      -22.6871430986
 O       -13.1370912619        2.9190475519      -22.3228148878
 C       -14.1703357710        0.7055714963      -22.2663259959
 C       -13.5403562212       -0.2038110228      -21.1832832604
 O       -12.6969456084       -1.0433016952      -21.5114987495
 C       -14.0823986824       -0.2329155229      -19.7998239293
 C       -13.3436633472       -1.2165152917      -18.9068789971
 C       -11.8512400741       -0.7408896962      -18.7048778069
 O       -11.6026237451        0.4838746671      -18.6086002164
 C       -10.7504473364       -1.9198272334      -18.4651294533
 C        -9.3742702052       -1.0690231182      -18.3492963560
 O        -8.7188564126       -0.8956678581      -19.3118103739
 C        -8.8475836378       -0.4994563680      -17.0640453622
 C        -7.3286463937       -0.0284610106      -17.2568169970
 C        -7.0838252930        1.4295453342      -16.8835531130
 O        -7.7527858133        2.2723260752      -17.4323087814
 C        -5.9461250681        1.8477661157      -15.9774579981
 C        -5.6380403025        0.7840376644      -14.7292349096
 O        -6.3129567306       -0.1029896419      -14.2878366316
 C        -4.3201506193        1.0999329181      -13.9510402239
 C        -4.1918763696       -0.0109659497      -12.8433484392
 C        -2.8341176428       -0.0260333880      -12.2104763893
 O        -1.9798484992        0.7543892016      -12.5737603002
 C        -2.5387142097       -0.9318640623      -10.9565181702
 C        -0.9730707291       -0.9773715562      -10.7086689368
 O        -0.5216978414       -0.7465886851       -9.6126655573
 C        -0.1198009713       -1.5364093921      -11.8380653207
 C         1.2429585518       -2.2093060284      -11.3649072082
 C         1.0224820273       -3.6244812098      -10.8684400050
 O         0.0358749170       -4.2359336286      -11.2441546003
 C         1.9938949819       -4.5388962049       -9.9020704146
 C         2.0830767655       -3.7779304441       -8.5166248238
 O         1.8949320720       -2.5931743524       -8.4231025063
 C         2.6995221823       -4.6124433325       -7.4416890511
 C         3.5222216381       -3.8296506581       -6.4894965263
 C         3.4096211053       -4.4708644895       -5.1418960837
 O         2.6418841170       -5.3086725779       -4.8266980354
 C         4.5329258297       -3.8935793705       -4.0917387288
 C         4.8213331558       -2.4275789790       -4.5305624977
 O         5.6746355597       -2.1338088973       -5.3341072050
 C         4.0153355833       -1.2763879660       -3.6747851324
 C         4.0420536300        0.0489948810       -4.3724514902
 C         3.3917148945        0.1649003953       -5.7400160919
 O         2.7808935526       -0.7362787270       -6.2985022687
 C         3.4177965067        1.5778269566       -6.5555331946
 C         2.0424474310        2.0965615765       -6.1527792829
 O         1.1320396642        1.5363763579       -6.7727004409
 C         1.9006689961        3.4392540137       -5.5667836053
 C         0.4724395259        3.6418330266       -4.9197626594
 C         0.2134938629        2.6020564668       -3.8346075386
 O         1.0520874776        1.8336444224       -3.4621956135
 C        -1.3390002742        2.5722993349       -3.2989234428
 C        -2.1823618955        1.6436142146       -4.5292809670
 O        -2.9383607481        2.1731199608       -5.3068820037
 C        -1.6768937611        0.2074366816       -4.6737605007
 C        -2.5759269940       -0.6007176929       -5.5792216378
 C        -1.9274692539       -1.9468588299       -5.7508650919
 O        -0.7889430602       -2.0360453765       -6.1498961279
 C        -2.9097064880       -3.2485426071       -5.5705205750
 C        -3.4728526853       -3.4452028369       -4.0631957888
 O        -4.6672848720       -3.3162312465       -3.8488409979
 C        -2.3773200424       -3.8468320335       -3.0110557417
 C        -3.0502036951       -4.4115274022       -1.7133347147
 C        -2.2292383778       -4.1695436598       -0.4632396059
 O        -2.4685892273       -3.1605722829        0.1606061928
 C        -0.9693801371       -5.0376438827        0.0610919445
 C        -0.9653346149       -6.4209340474       -0.6641680482
 O        -0.8523474595       -6.4230965189       -1.8642158123
 C        -0.9616322713       -7.6504512337        0.2596431578
 C        -0.7339737984       -8.9724947621       -0.6074508317
 C         0.6772075301       -9.5603720188       -0.5655221026
 O         1.7142692590       -8.9401180798       -0.4742313285
 C         0.9346715346      -11.2095009028       -0.6666803456
 C         0.0130497573      -11.6684474348       -1.7830150351
 O        -1.1752883444      -11.6893735027       -1.5376909216
 C         0.4634937611      -12.3601797129       -3.0917676091
 C         2.4835206686      -11.3598140934       -0.8556081974
 C         0.4574184250      -11.8707922570        0.6826437889
 C         0.4105504650       -4.2808388273       -0.2975959304
 C        -0.9504821838       -5.0248822746        1.5802390609
 C        -4.0542584139       -3.1011975180       -6.5132673737
 C        -2.0077878889       -4.4296661415       -6.0364962161
 C        -1.5095237456        1.8487611028       -1.9471567761
 C        -1.8830808440        4.0604346644       -3.3634278273
 C         4.6403631952        2.3465894666       -6.2623851900
 C         3.3785168659        1.3195468230       -8.0715621529
 C         3.8880700107       -4.0455138189       -2.6943514362
 C         5.8333213705       -4.5778431623       -4.0265616345
 C         1.4828530506       -6.0117677944       -9.7644055387
 C         3.4009467454       -4.3360172595      -10.6266611890
 C        -3.0792840446       -0.0172650551       -9.7306178583
 C        -3.2716068872       -2.2798151199      -11.0861497021
 C        -4.7078272327        1.8568116212      -16.9925390650
 C        -6.2696725685        3.2136588244      -15.3461716590
 C       -11.0708645797       -2.7143520094      -17.1615461492
 C       -10.5924243927       -2.8560235292      -19.7185179781
 C       -15.4861404222        1.5315423119      -21.9849419057
 C       -14.4418805911       -0.2480497799      -23.4163515932
 C       -10.6434352991        5.2120800492      -22.5863979353
 C        -8.7369179762        4.4575595067      -21.2256477527
 H       -13.1655213975        4.7951634110      -20.9178524727
 H       -11.9717764534        6.2036705097      -20.5367186003
 H       -12.8285133295        5.1803922585      -19.2488802472
 H        -9.7892885396        2.2744275816      -24.1111389910
 H       -11.2324743623        3.3325063942      -23.8448883946
 H       -11.3887341565        0.3350164075      -23.0793826348
 H       -11.8477701845        1.1287796700      -24.5724100607
 H       -15.0569215060       -0.7241056772      -19.8193687559
 H       -14.1985353203        0.8106043090      -19.3759450073
 H       -13.2470894854       -2.2278350928      -19.3271500953
 H       -13.8114086411       -1.3403563770      -17.9247994402
 H        -8.9221892762       -1.2544286184      -16.2113802409
 H        -9.4486262901        0.3345338397      -16.8583814259
 H        -7.0931392575       -0.1917532734      -18.2597464507
 H        -6.7527729215       -0.7806073179      -16.6898397184
 H        -4.3752247861        2.1366510792      -13.4667724619
 H        -3.4385054467        1.0106704089      -14.5652923074
 H        -4.2396011946       -1.0172333561      -13.2268574813
 H        -4.9023988074        0.1457194510      -12.0362973670
 H         0.0408630007       -0.7644760500      -12.5468160505
 H        -0.6641626962       -2.2594454686      -12.5344100184
 H         1.7576966941       -1.5879420523      -10.6724434091
 H         1.9484710620       -2.1927139016      -12.2400036341
 H         3.2109826763       -5.3835491713       -8.0292830599
 H         1.8401919258       -5.2723818325       -6.8732659049
 H         3.1718522672       -2.8266795907       -6.2792651854
 H         4.6314713716       -3.7386274887       -6.8497414433
 H         4.4997406391       -1.2239314236       -2.7146088206
 H         3.0015838953       -1.6407963899       -3.4864864014
 H         5.1232043125        0.3980483029       -4.4042540725
 H         3.5400295276        0.7282284976       -3.6549875177
 H         2.1227785900        4.2681967815       -6.2656200571
 H         2.5492573439        3.6483870591       -4.7800475253
 H        -0.3332139451        3.4755615446       -5.6268261478
 H         0.2774910630        4.6332431840       -4.5311799962
 H        -1.5958684102       -0.1756622321       -3.6674665742
 H        -0.6482863960        0.3232603955       -5.0604637102
 H        -2.6053865985       -0.1616547773       -6.6241864356
 H        -3.6353181931       -0.7006297536       -5.3340840950
 H        -1.8782984037       -2.9053677099       -2.7873887121
 H        -1.5658093362       -4.5229442466       -3.2887971318
 H        -3.3200391156       -5.4183566082       -1.9367686565
 H        -4.0328774124       -3.9644125193       -1.5162043919
 H        -1.7698565405       -7.8186400648        0.9109718615
 H        -0.0859687513       -7.5684744384        0.8791875515
 H        -0.9852823366       -8.8812687447       -1.6243486333
 H        -1.5316962734       -9.6886269331       -0.2838038015
 H         1.4460334673      -12.8673676973       -3.1444627659
 H         0.4031965696      -11.7468968021       -4.0001850178
 H        -0.2248564875      -13.2220278229       -3.1828664194
 H         3.0094977754      -11.3433948027        0.1395936398
 H         2.8642042955      -10.5703669659       -1.5066656630
 H         2.7536316534      -12.3168078074       -1.3759991711
 H         0.8503927289      -12.8951491063        0.6077831451
 H        -0.6068197712      -11.8895447829        0.6618751752
 H         0.7166152021      -11.2816693896        1.5739176350
 H         1.2149543592       -4.9302474886        0.1211025463
 H         0.5270665934       -3.3502532413        0.1748313274
 H         0.5381878149       -4.1670670735       -1.4430530556
 H        -1.0481345292       -3.9457207015        1.8995618937
 H         0.1126582409       -5.3758819096        1.8929765101
 H        -1.7809964903       -5.6715882762        1.8772611300
 H        -3.5630240896       -2.8539497185       -7.4276948026
 H        -4.8478846866       -2.4369486870       -6.1701571940
 H        -4.4781651185       -4.0874455925       -6.6526019591
 H        -2.6984730333       -5.2466708866       -6.1697009901
 H        -1.1857716662       -4.6909589154       -5.3703925308
 H        -1.5466358457       -4.1737078030       -6.9802682855
 H        -2.5480137436        1.5928154404       -1.6730273654
 H        -1.0646422993        2.4191593244       -1.1368734295
 H        -0.8323897918        0.9441285442       -1.9894709770
 H        -2.2228327964        4.2333707013       -4.4012597871
 H        -1.1457126490        4.7376280242       -3.0383298281
 H        -2.6534135140        4.2108848159       -2.6581028447
 H         4.5302932213        3.3168604830       -6.7505443040
 H         5.5038711364        1.7376321046       -6.6194088965
 H         4.6724457869        2.5262437996       -5.1854318301
 H         3.7999687816        2.2243624675       -8.5702068093
 H         2.4382532994        1.0454497112       -8.4446467235
 H         4.1130869308        0.5316963861       -8.3850704456
 H         2.9640721691       -3.5087126800       -2.5863415546
 H         4.5693939380       -3.7145998097       -1.9650444578
 H         3.8477570684       -5.1002966538       -2.5016408356
 H         6.3543753095       -4.0250789377       -3.2382923044
 H         6.3621554640       -4.8388161199       -4.9477249648
 H         5.6372538826       -5.4762930472       -3.5599644407
 H         2.2257835387       -6.7416161289       -9.3911394225
 H         1.0715930550       -6.4194066668      -10.6772861387
 H         0.7105477613       -5.9102106128       -9.0379417471
 H         4.0139135781       -5.1522373462      -10.1403739975
 H         3.8343290497       -3.3617884676      -10.5493272754
 H         3.1464543193       -4.4807730652      -11.6796938629
 H        -4.1500246442        0.3540159880       -9.8899671019
 H        -2.4246748653        0.8672921368       -9.6341800930
 H        -3.0763797903       -0.5094644321       -8.7771640162
 H        -3.4689588108       -2.8180493046      -10.1622895025
 H        -2.7625173295       -2.9473376254      -11.6884901634
 H        -4.2456117823       -2.2015999771      -11.5005935641
 H        -3.7120125579        1.8076949300      -16.4934683029
 H        -4.8857248734        2.7403540656      -17.5839264779
 H        -4.6712832046        0.9522066041      -17.6033748997
 H        -5.4842447443        3.6425899166      -14.7122382411
 H        -7.0710429360        3.0497002478      -14.6056608180
 H        -6.3893699824        4.0808808550      -15.9919604072
 H       -10.2319557772       -3.4660710500      -17.0767718972
 H       -11.9326163191       -3.2302087074      -17.1416227424
 H       -11.2073855741       -1.9645747237      -16.3702159846
 H        -9.5712497745       -3.3320018801      -19.7037911742
 H       -10.4850386461       -2.1346820518      -20.6299195062
 H       -11.3731704694       -3.4884933162      -19.9606070490
 H       -15.8082107869        2.1269981137      -22.7954210020
 H       -15.3065907181        2.1598772151      -21.0799216463
 H       -16.2408498764        0.7895490050      -21.7833817741
 H       -14.6388634821        0.2101256720      -24.3562680377
 H       -15.1788523884       -1.0692027154      -23.2151838951
 H       -13.5916978976       -0.9242343257      -23.4463348909
 H       -10.0528551556        4.9048273923      -23.3826914980
 H       -10.2877724327        6.2020916967      -22.3445873596
 H       -11.6527567338        5.2716710288      -23.0381324468
 H        -8.2427688444        4.5160925509      -22.2181562603
 H        -8.3755559136        3.5061376933      -20.8054167611
 H        -8.4342802085        5.2423028328      -20.5461516787
 Na       -9.6327674864        1.7735009831      -18.8871176590
 Na        0.9181855418       -0.8514701083       -7.4953276605
