232

 C       -12.3854318154        4.9751719039      -20.1244791322
 C       -11.0480223801        4.3007234748      -20.0456590509
 O       -10.6558428832        3.7992219011      -19.0235924118
 C       -10.2110670421        4.1792159508      -21.3284441138
 C       -10.3867409235        2.6124464207      -21.9490800372
 O       -10.1747756241        1.6497002148      -21.2763224621
 C       -10.7916329978        2.3450239172      -23.4893280131
 C       -12.0027787347        1.2873334238      -23.6006499212
 C       -13.1200761520        1.7918412082      -22.6740567451
 O       -13.1265052972        2.9079920958      -22.2075302884
 C       -14.2424929773        0.6676235502      -22.2951784615
 C       -13.5297319591       -0.2579649832      -21.1732769023
 O       -12.5603965750       -0.9152180980      -21.4297380297
 C       -14.0602049885       -0.2794963725      -19.7220075861
 C       -13.2580056884       -1.2882929562      -18.8582304852
 C       -11.8483286331       -0.7357034436      -18.5722212645
 O       -11.6288935180        0.4189266200      -18.5308640245
 C       -10.6858277125       -1.8236315601      -18.4546986443
 C        -9.3316133391       -1.0887734666      -18.3676546949
 O        -8.5808682577       -0.7903733784      -19.3321652602
 C        -8.7232042956       -0.6741344122      -17.0012849344
 C        -7.2863961031       -0.0493234561      -17.0623570302
 C        -7.1049742419        1.4057486871      -16.7533937437
 O        -7.8182072112        2.2207050567      -17.3720070574
 C        -5.9393727758        1.9557557218      -15.8877668271
 C        -5.7025215631        0.8893743328      -14.6963174506
 O        -6.5099340624       -0.0092473017      -14.5118508409
 C        -4.4317110673        1.0949910130      -13.8098328642
 C        -4.0469126930        0.0076528479      -12.8280281579
 C        -2.5744794819        0.0507258259      -12.1786621840
 O        -1.7358659250        0.7883292947      -12.6420989128
 C        -2.4089239743       -0.8410391494      -10.8723398442
 C        -0.9318464177       -1.0892435660      -10.6796351765
 O        -0.3274491142       -0.7774498180       -9.6533140993
 C        -0.1387665336       -1.5559592404      -11.8859281313
 C         1.1297915085       -2.2743946489      -11.4156742132
 C         0.8975420561       -3.7415138224      -11.1112175896
 O        -0.1683959259       -4.2228827962      -11.3981052605
 C         2.0092811380       -4.5062212673      -10.2022137571
 C         2.0778369643       -3.8210861083       -8.7727700298
 O         1.8845647423       -2.6250662731       -8.5334889344
 C         2.4664859805       -4.6886942581       -7.5114514700
 C         3.6896322525       -4.0725664901       -6.7084246929
 C         3.6699919480       -4.5315157461       -5.1967448826
 O         2.8719745719       -5.3923559164       -4.7973949875
 C         4.4939909022       -3.7662797811       -4.0503894885
 C         4.7408016372       -2.2502780808       -4.3981941586
 O         5.5227844431       -2.0399152395       -5.3233177530
 C         3.8920731645       -1.1256757377       -3.7614020869
 C         4.1967604354        0.2253736306       -4.5246890014
 C         3.5140702771        0.2097198147       -5.8843747248
 O         2.8906022170       -0.7555247865       -6.2277076211
 C         3.3524204325        1.6064407748       -6.8089522006
 C         1.9615764019        2.2503394735       -6.4583867916
 O         0.9517084926        1.5722967434       -6.5478346120
 C         1.8767779006        3.5940777707       -5.6891348663
 C         0.4679082551        3.8883445221       -5.1060764636
 C         0.1171310349        2.8525271695       -3.9716384068
 O         1.0052895092        2.2156985247       -3.3903227448
 C        -1.3140304315        2.7132579081       -3.5479871811
 C        -2.0220522759        1.6287522071       -4.4293869930
 O        -2.9241800589        2.0157114490       -5.1156085725
 C        -1.6113828618        0.0493636441       -4.4869394947
 C        -2.6043528768       -0.6888026449       -5.3209823264
 C        -2.0811678173       -2.0211295771       -5.8334785234
 O        -0.9953149546       -1.9569728850       -6.4277408540
 C        -2.8597603919       -3.3460107029       -5.6300699321
 C        -3.3880041792       -3.6514200705       -4.0984777564
 O        -4.5498427298       -3.3748183455       -3.8597910719
 C        -2.3522387337       -4.2371731567       -3.0431335527
 C        -3.0053294019       -4.4511070870       -1.6538222775
 C        -2.2244237251       -4.1494107468       -0.3260329525
 O        -2.4428185438       -3.1444441143        0.3229119833
 C        -0.9992287874       -5.0565953810        0.1618073098
 C        -0.8785008013       -6.4412357596       -0.5538929318
 O        -0.8626565767       -6.5561393361       -1.7837240096
 C        -0.6262534042       -7.6645037012        0.2893673073
 C        -0.6637476822       -9.0011473546       -0.4804347594
 C         0.7745881440       -9.6083599005       -0.5930006839
 O         1.7620039261       -8.9084583189       -0.3926318916
 C         0.9115512180      -11.2218037495       -0.6172047030
 C        -0.0542060274      -11.6897586250       -1.8142884319
 O        -1.2763871685      -11.6201844555       -1.7124369457
 C         0.5216856846      -12.0540601521       -3.0888127783
 C         2.3389921016      -11.5879788438       -0.9533770379
 C         0.4654838289      -11.9531740968        0.7625763157
 C         0.2724623643       -4.2531895799       -0.1360952177
 C        -1.2914090677       -5.2775175261        1.6437927537
 C        -4.1809398338       -3.1190054933       -6.5772457165
 C        -2.0100649757       -4.5246414819       -6.0449634202
 C        -1.2827314044        2.0179082509       -2.0653320835
 C        -2.3287412945        3.9440944813       -3.5441660905
 C         4.5294771111        2.4811093787       -6.3391061254
 C         3.5712069923        1.1667521728       -8.2833782724
 C         3.7049022601       -3.9565758927       -2.7290350095
 C         5.9611834399       -4.4507597056       -4.1393726048
 C         1.5420668458       -5.8962077927      -10.0842296036
 C         3.5272247962       -4.3685071561      -10.8937574998
 C        -3.1194581008       -0.1673709838       -9.6358380161
 C        -3.1033823402       -2.2517015840      -11.0206681018
 C        -4.6085956646        1.8796598550      -16.7370815446
 C        -6.1845066949        3.3950613230      -15.3963989116
 C       -10.9346675260       -2.7224983614      -17.2030398530
 C       -10.6623605957       -2.6332876203      -19.7646622240
 C       -15.4264144641        1.5028728965      -21.6930840375
 C       -14.5400815563       -0.0946021864      -23.6575191033
 C       -10.6422244177        5.2602521517      -22.3492718371
 C        -8.7028171425        4.3450160751      -20.8303613389
 H       -12.9143941858        4.4343589065      -20.8404302640
 H       -12.3472018415        5.9863524509      -20.3196830286
 H       -12.9341361047        4.7378147835      -19.2390672402
 H        -9.9507626057        1.9805663617      -24.1185030587
 H       -11.0898981975        3.3220353172      -23.8516822149
 H       -11.5233471573        0.3253420637      -23.5523572659
 H       -12.3730124028        1.3501604959      -24.6075789732
 H       -15.1475558272       -0.4237168685      -19.5593278804
 H       -13.8173186975        0.6950550959      -19.3451190182
 H       -13.0987759159       -2.2704274919      -19.3140463827
 H       -13.5875156297       -1.5502547395      -17.8361896803
 H        -8.5974814700       -1.5897277064      -16.4869757124
 H        -9.4192148986        0.0413337492      -16.4181481107
 H        -6.9745795545       -0.1794513158      -18.1745782722
 H        -6.6631653335       -0.7696395759      -16.5834203975
 H        -4.5806111417        2.0093437018      -13.3081947371
 H        -3.5628771381        1.2293347944      -14.4880650710
 H        -4.1547349806       -1.0456956117      -13.2145238954
 H        -4.7208829165       -0.0060526506      -11.9314237647
 H         0.2064132866       -0.8085889701      -12.6951216780
 H        -0.6886301590       -2.1770497554      -12.5456758973
 H         1.5133523205       -1.7801745786      -10.4750615449
 H         1.8999143704       -2.0618319117      -12.1279806970
 H         2.5070003131       -5.6969304827       -7.7984287732
 H         1.7153022790       -4.6154528594       -6.8310643321
 H         3.7975392870       -2.9572851123       -6.6469075731
 H         4.5592431420       -4.4853272571       -7.0867338158
 H         4.1079822351       -1.1131487179       -2.6528535041
 H         2.8444125061       -1.5158790056       -3.8022690497
 H         5.2713473593        0.3108384296       -4.5926896199
 H         3.8015764834        1.0568545109       -3.9180435801
 H         2.1430334612        4.4481927619       -6.3337308115
 H         2.5506897482        3.9033125244       -4.8147550365
 H        -0.3431752635        3.8310165127       -5.8663603332
 H         0.3637733026        4.9106493998       -4.6776672551
 H        -1.4379371211       -0.3769954596       -3.4846850858
 H        -0.6389119866        0.0504374770       -4.9592512996
 H        -2.8237345037       -0.1122971075       -6.2094490806
 H        -3.5799272522       -0.8531455847       -4.8212941799
 H        -1.3603671850       -3.7396742201       -3.0578431492
 H        -2.2559180119       -5.2561121057       -3.4839719006
 H        -3.4679261944       -5.4941489851       -1.6644862937
 H        -4.0120237765       -3.9927792345       -1.7058709497
 H        -1.3209739859       -7.7874842352        1.1427201245
 H         0.3881117134       -7.6081489033        0.7074555171
 H        -1.2202163878       -8.9290469663       -1.4875389761
 H        -1.3941773843       -9.6320811182       -0.0227663076
 H         1.5593724280      -12.4021927071       -3.0214045112
 H         0.5434911002      -11.1648437788       -3.7171483775
 H        -0.0064014424      -12.8376039183       -3.6080678465
 H         2.9648071880      -11.0991534811       -0.2522160447
 H         2.6062137433      -11.3102452885       -1.9833732840
 H         2.5163424103      -12.6328116663       -0.8361760015
 H         0.7723475770      -12.9881372077        0.6733184388
 H        -0.5850406717      -11.7711649235        1.0363458950
 H         1.0317698676      -11.4580106596        1.5436703857
 H         1.1828672415       -4.6567476070        0.2633805011
 H         0.1035916205       -3.2167802997        0.3136737018
 H         0.3379457058       -4.0282385906       -1.1676360787
 H        -1.4160661944       -4.2976973726        2.0247043468
 H        -0.5773385060       -5.8212938323        2.1411931201
 H        -2.2767740906       -5.7273175265        1.6054735000
 H        -4.1286700383       -3.6832899352       -7.5336332540
 H        -4.5198333047       -2.1021390639       -6.5577263562
 H        -4.9786560389       -3.6135248492       -5.9662078363
 H        -2.5557386346       -5.4346958231       -5.7416416408
 H        -0.9560717071       -4.4392351704       -5.7445080228
 H        -1.8962286668       -4.5234649009       -7.1695793615
 H        -2.2945908533        1.6452113175       -1.8806641837
 H        -1.0719703833        2.8103758135       -1.3384867339
 H        -0.5933081822        1.2705430695       -1.8159496304
 H        -2.2738470405        4.5743805276       -4.4565166302
 H        -2.1290447738        4.5351740368       -2.6196192314
 H        -3.3805181600        3.5217980958       -3.4635846947
 H         4.5935458023        3.4191685193       -6.9847445620
 H         5.3764625668        1.8237569900       -6.4339967882
 H         4.4032798533        2.7967841308       -5.3036986182
 H         3.9068100085        2.0062899955       -8.8695133705
 H         2.6635337065        0.6179431451       -8.7250343462
 H         4.4617852343        0.5644082170       -8.4019230954
 H         2.6422401614       -3.7587555095       -2.9172575507
 H         4.1286042337       -3.3683376104       -1.8712534566
 H         3.8390570073       -5.0045466602       -2.4003140544
 H         6.6266896768       -3.8072154543       -3.6582824501
 H         6.1690998426       -4.7251186476       -5.1637686261
 H         5.9949516655       -5.4756357767       -3.5599464258
 H         2.3111595843       -6.6097180771       -9.9396768746
 H         1.0958722960       -6.1713220583      -11.0795929529
 H         0.6959524512       -5.9479547552       -9.3563014095
 H         4.2516532856       -4.7088463902      -10.1758686301
 H         3.5836466837       -3.3370038570      -11.2684245997
 H         3.4528996183       -4.9987213012      -11.7935376087
 H        -4.1213491215        0.0860747953       -9.7981580834
 H        -2.6203183230        0.6825817896       -9.2268201826
 H        -3.0412812987       -0.9236119022       -8.8213493885
 H        -2.6615997597       -2.9734416907      -10.3324618518
 H        -2.9849394034       -2.7572515352      -12.0173785090
 H        -4.1716350155       -2.3827222659      -10.7980772830
 H        -3.9213339322        2.5930756990      -16.3078791104
 H        -4.7296105699        1.8732011169      -17.8338260069
 H        -4.1080876146        0.9592916192      -16.4616328986
 H        -5.4703510465        3.8509067269      -14.7028994702
 H        -7.1464975102        3.5120931425      -14.8391891870
 H        -6.1122028735        4.1322409639      -16.2073018012
 H       -10.2497822007       -3.4927046983      -17.1633695205
 H       -11.9550067500       -3.3032922701      -17.3419152810
 H       -11.1093308038       -2.0444356963      -16.3713968194
 H        -9.8465929327       -3.2947792768      -19.7839747015
 H       -10.6906665026       -2.0963203302      -20.6868754845
 H       -11.5775332998       -3.2767291427      -19.7190277238
 H       -15.6905105750        2.3534400518      -22.3761045446
 H       -15.0865386335        1.9172415440      -20.7548631031
 H       -16.3575522058        0.9102606006      -21.5708844482
 H       -14.6959671878        0.5932031650      -24.5038295867
 H       -15.3998809846       -0.7031992862      -23.4927820456
 H       -13.9287122187       -0.9381770197      -23.8046923533
 H       -10.1635014867        5.2436841758      -23.4052619333
 H       -10.6206504746        6.3214832151      -22.0231114553
 H       -11.6248758809        4.9245084034      -22.5656257962
 H        -8.2202444046        5.1426715559      -21.4012115362
 H        -8.0865884931        3.4420865459      -20.9419857567
 H        -8.7185517306        4.5490066478      -19.7555173893
 Na       -9.5146166816        1.6570893825      -18.8811336239
 Na        0.6958742717       -0.7791662202       -7.4461907279
