232

 C       -22.3817130362       -6.7258506027       -5.1057789401
 C       -21.3170195901       -6.0690268306       -4.3279629737
 O       -20.1442459886       -6.3631075886       -4.4456548204
 C       -21.8544203783       -4.9751459990       -3.3156879058
 C       -20.5639651831       -4.5583818393       -2.4867540451
 O       -19.9634440212       -5.3304233745       -1.7680792535
 C       -20.1230593566       -3.1460771979       -2.6417680502
 C       -18.7996170683       -2.7873008435       -1.9097620697
 C       -17.5990977334       -3.2812749003       -2.6803820140
 O       -17.7390145482       -3.7749751434       -3.8101387701
 C       -16.1905875814       -3.2506394194       -2.0559261739
 C       -16.0909019514       -4.5768167966       -1.2413670232
 O       -17.0666504729       -5.0194318966       -0.7098159362
 C       -14.7056549798       -5.2926974942       -1.0192179989
 C       -14.9454923554       -6.7838228890       -0.8139439571
 C       -15.1530360999       -7.6331762918       -2.0632046421
 O       -16.0646382996       -7.4710886652       -2.8746656646
 C       -14.2073253212       -8.8982659581       -2.3347460450
 C       -12.6874513734       -8.4737643521       -2.4777942044
 O       -12.3891909044       -7.2917428166       -2.3475241503
 C       -11.6206843102       -9.5421935364       -2.8279465872
 C       -10.3008785297       -8.7913955824       -3.1094834549
 C        -9.0383978549       -9.5228543975       -2.6221140185
 O        -9.0219453036      -10.2221501195       -1.6366239730
 C        -7.8604208494       -9.6589929285       -3.6596534755
 C        -7.3965798255       -8.3209740590       -4.4398329236
 O        -7.3321429916       -7.2330013809       -3.9418059703
 C        -6.8992976108       -8.5796819018       -5.9335218342
 C        -6.2286152908       -7.4057677217       -6.5255049765
 C        -7.1424306279       -6.3114872336       -7.1994051254
 O        -8.2428169446       -6.6358826200       -7.6123259266
 C        -6.4665591538       -4.9057635659       -7.3842259595
 C        -5.3154529850       -5.3223173126       -8.3980123024
 O        -4.2098803873       -5.4098574207       -7.9441252191
 C        -5.8328224850       -5.6443778220       -9.8195581325
 C        -5.0689549022       -4.6783203989      -10.7260086966
 C        -4.8964116654       -5.0709289804      -12.2346473341
 O        -4.1431147786       -5.9723654405      -12.5511579560
 C        -5.4127015328       -4.1041491152      -13.3639983618
 C        -4.5390517476       -2.7318198718      -13.0769932331
 O        -5.0168161036       -1.8182609220      -12.4458229013
 C        -3.0181657015       -2.6811680981      -13.5312938377
 C        -2.0771231393       -2.4453735066      -12.2656882871
 C        -0.8462123420       -1.7047378615      -12.7003295172
 O        -0.8602179343       -0.7358670464      -13.4058973868
 C         0.5277591434       -2.1106832242      -11.9484756789
 C         1.6797342328       -1.2151573267      -12.4598432641
 O         2.3181304014       -1.5471533169      -13.4558527920
 C         1.9124758072        0.1711154601      -11.8828663311
 C         3.3992738043        0.3527517090      -11.4283785269
 C         3.6412948951        1.4084899450      -10.4299076737
 O         2.6969053931        1.9959871889       -9.8590994729
 C         5.0433596435        2.2911864959      -10.3333976017
 C         5.0751690134        3.1112053836      -11.6480608923
 O         5.7973982904        2.7919906626      -12.5284169867
 C         4.1456858950        4.3506135566      -11.6631318799
 C         4.8325737776        5.7062067915      -11.4706578256
 C         5.5784718003        6.3215423391      -12.7775086000
 O         5.2374889491        6.0588869309      -13.9110128157
 C         6.6102448319        7.3852877891      -12.4717143394
 C         7.6034721649        7.4510809758      -13.6587279534
 O         7.5158009895        8.3044003508      -14.4931633010
 C         8.5787912058        6.2476686544      -13.8558964419
 C         9.2549195795        6.0290398254      -15.2036689160
 C         8.0633359105        5.8824287930      -16.2949322674
 O         7.2046762670        5.0889185856      -15.9548298945
 C         7.8886832981        6.6224429445      -17.6489797753
 C         8.3779014138        5.6672775934      -18.7336714973
 O         9.1403788212        4.7305081307      -18.4333603978
 C         7.8843781838        5.7812137431      -20.1654342355
 C         8.5057395515        4.6495365452      -20.9942850257
 C         8.1805853707        3.2219169446      -20.5210574288
 O         7.1147023423        2.9414263679      -20.0425404481
 C         9.2275514165        1.9742879877      -20.5754602526
 C         9.4434757737        1.0810441940      -19.2031113253
 O        10.1865604836        0.1028873621      -19.1886055963
 C         8.7052730763        1.6970607486      -18.0204290483
 C         8.5558272008        0.6843295910      -16.9092243019
 C         7.3410649174        1.1294365737      -16.1023273355
 O         7.6209227152        1.7881569861      -15.1222240748
 C         5.9070397713        0.5507321040      -16.2657359891
 C         5.0623544523        1.7532105835      -16.8458228520
 O         5.1078398827        2.8680601648      -16.3863798676
 C         4.2439650796        1.5413607628      -18.0493242524
 C         5.9407549044       -0.7028628401      -17.2204870297
 C         5.3572897179        0.1006382328      -14.8932502570
 C         8.6061458861        0.9716389953      -21.7294043479
 C        10.7503715924        2.3097911764      -20.9715603383
 C         6.4130566426        7.0420954414      -17.8302727771
 C         8.6894737868        7.9277343854      -17.7499647330
 C         5.9286106323        8.7324425808      -12.1982811164
 C         7.3497774752        7.0587542348      -11.1701387398
 C         5.2708270093        3.2339740010       -9.0537563318
 C         6.1425113617        1.1622799512      -10.3951957504
 C         0.2500877009       -1.8129708039      -10.4629156259
 C         0.8340197902       -3.5929537645      -12.2240925012
 C        -5.1602199218       -4.6467831032      -14.7762202235
 C        -6.9489989866       -3.7930215996      -13.2276066840
 C        -7.6237500517       -4.0478826813       -7.8749529539
 C        -5.8225934584       -4.0835529808       -6.1666653231
 C        -6.5535485537       -9.8877729423       -2.7232439520
 C        -8.2848935140      -10.8321791884       -4.4474502163
 C       -14.3274295736      -10.0126842876       -1.2289063006
 C       -14.6138434728       -9.5030904880       -3.6834318368
 C       -15.0825364365       -3.1279989867       -3.1807757929
 C       -15.9329057160       -1.9983154565       -1.0898771988
 C       -22.5504405283       -3.8641876942       -4.0058835152
 C       -22.8624661467       -5.7217943794       -2.3759882838
 H       -23.1910617602       -5.9971157758       -5.3464539198
 H       -22.8954605662       -7.3401128168       -4.4403762379
 H       -21.8524124490       -7.2377153701       -5.9506581406
 H       -20.8587909438       -2.5013213237       -2.1462910575
 H       -19.9728078783       -2.8846357111       -3.6810944921
 H       -18.6931602461       -3.1650326312       -0.8740276846
 H       -18.9516827017       -1.7245312669       -1.8347068612
 H       -14.2642037371       -4.8260431335       -0.1473008981
 H       -13.9803904130       -5.2362759242       -1.8456002708
 H       -15.7868255296       -7.0387502901       -0.0780688056
 H       -14.1315941629       -7.1073857008       -0.2170025302
 H       -11.9706058198      -10.0540719079       -3.7578341837
 H       -11.5025847201      -10.2437331802       -2.0494507210
 H       -10.2390744332       -7.8615368017       -2.6085458497
 H       -10.1171479071       -8.6826279251       -4.1819588740
 H        -7.7608137881       -8.9027159953       -6.5218413971
 H        -6.2286663821       -9.3854160650       -5.9026979344
 H        -5.5468614160       -7.6467721554       -7.3226925013
 H        -5.7067953137       -6.9042470098       -5.7855650480
 H        -6.8679611136       -5.5265285261       -9.9059102188
 H        -5.6255734143       -6.7245020357      -10.0045474510
 H        -4.0098275187       -4.5715655054      -10.3829262751
 H        -5.6583158237       -3.6592361887      -10.6171980738
 H        -2.6915792566       -1.8693253448      -14.1913630523
 H        -2.6246350578       -3.6224389090      -13.8979597857
 H        -1.9104147206       -3.4786445619      -11.6935681048
 H        -2.7083662556       -1.8771543865      -11.5308873713
 H         1.1405867430        0.3594543849      -11.0821979119
 H         1.7107814373        0.8976998566      -12.6903628955
 H         3.8786349512        0.2863290512      -12.3589860140
 H         3.7364035074       -0.5190636157      -10.8508751212
 H         3.4259096703        4.1510407965      -10.8476487095
 H         3.4796219905        4.3816181706      -12.4289691908
 H         5.6506582468        5.7312257211      -10.7522728295
 H         3.9705604066        6.3735127850      -11.2268680952
 H         8.0542822356        5.3827605018      -13.4932106658
 H         9.3574703999        6.4102014802      -13.0835081615
 H         9.8571864131        4.9972477257      -15.1896338524
 H         9.8374107827        6.8789266918      -15.5854734457
 H         8.2699971855        6.8042097747      -20.5103070809
 H         6.8175141786        5.9442700655      -20.0556812456
 H         9.6281241643        4.6829245278      -20.9081081093
 H         8.3302126091        4.6099035266      -22.0198333173
 H         7.8492484873        2.1508221978      -18.4432027784
 H         9.3272713336        2.5751479453      -17.8389209407
 H         9.4881879896        0.7152634505      -16.2558312118
 H         8.4247739270       -0.3528665669      -17.1472583918
 H         4.7886460764        1.0141420810      -18.8478335374
 H         3.6864633861        2.3999431036      -18.3880329995
 H         3.5295670008        0.7645991779      -17.7419499251
 H         4.8962476118       -1.0512084206      -17.5721503285
 H         6.4044130810       -1.6144678546      -16.9384497390
 H         6.5042927123       -0.5321916206      -18.1359304446
 H         4.3764791217       -0.3102669264      -15.2206500780
 H         5.2618877721        0.9035798074      -14.2230972059
 H         5.6903458467       -0.7819842513      -14.5065764579
 H         9.2851084811        0.1640837179      -21.9921937657
 H         8.4783964260        1.4042099737      -22.6601986423
 H         7.7327430314        0.5353362588      -21.3169072846
 H        11.1430897302        1.2607875203      -21.0184350680
 H        11.2477640901        3.0464021878      -20.3306251927
 H        10.8558545910        2.7550349035      -21.9977518494
 H         5.9918635596        7.5568932495      -16.9377523269
 H         5.9455018397        6.0709907339      -17.9513582639
 H         6.2036638031        7.6570264100      -18.7327208923
 H         9.7081470007        7.6558818320      -17.8877134388
 H         8.3947704201        8.6245651278      -16.9329584834
 H         8.3191197681        8.4903504719      -18.6776289875
 H         6.7054566521        9.3387255726      -11.7727508133
 H         5.1342718255        8.6006401447      -11.4581688492
 H         5.7145488132        9.1984693002      -13.1235837080
 H         6.6260852506        7.3004340419      -10.3751099234
 H         8.2506861770        7.5463261742      -11.0319639431
 H         7.5018857460        5.9829276320      -11.1160507031
 H         5.9012185381        4.0551402050       -9.4426317915
 H         5.7713192084        2.5821391938       -8.3413492575
 H         4.3838863671        3.6614079231       -8.7253553905
 H         6.9467406979        1.2560143305       -9.6781197962
 H         6.7595629748        1.1713588460      -11.2685875056
 H         5.8673337833        0.1686030710      -10.4025236775
 H        -0.2892250824       -0.8406838989      -10.4106700060
 H         1.1418801179       -1.7971312392       -9.9386146293
 H        -0.4460479016       -2.5316238619      -10.1205690279
 H        -0.1055198161       -4.1763662434      -12.0857391970
 H         1.6260301885       -4.0357362562      -11.5535190619
 H         1.2547169939       -3.6931729516      -13.2465634978
 H        -5.0533963218       -3.8459528206      -15.4769233059
 H        -6.0539662480       -5.0449377553      -15.1453033512
 H        -4.3989048985       -5.4130643189      -14.7488638059
 H        -7.2996211859       -3.4235569089      -14.1105967264
 H        -7.1116119613       -3.0368043865      -12.4991081065
 H        -7.3225528058       -4.7860773540      -13.0719312536
 H        -8.0166681822       -3.4753844250       -6.9909793062
 H        -8.4528364980       -4.6239736451       -8.1503850558
 H        -7.3887899991       -3.2197619123       -8.5025143452
 H        -6.2733099840       -4.1650466679       -5.1855625070
 H        -5.6181411181       -3.0110231015       -6.4186975469
 H        -4.8077177446       -4.4906942419       -6.0432866675
 H        -6.8360087454      -10.5079998605       -1.8347425686
 H        -6.2502249478       -8.9199041424       -2.2830015040
 H        -5.7774076922      -10.3791362631       -3.3167874451
 H        -8.6833210208      -11.6268996526       -3.9005488441
 H        -7.4924469838      -11.2256601662       -5.1137899893
 H        -9.1474636605      -10.6214030348       -5.0956065585
 H       -14.4633139993       -9.7818916812       -0.1592417223
 H       -13.4956377021      -10.7445455387       -1.2182743893
 H       -15.2076361621      -10.6149875455       -1.5531809348
 H       -14.1290173869       -9.0904269485       -4.5401492520
 H       -15.7353329036       -9.4010044056       -3.9060333685
 H       -14.5105021577      -10.6064771084       -3.9197611099
 H       -15.3276421554       -3.9679152312       -3.9117707772
 H       -14.1854787554       -3.2851228551       -2.5999994454
 H       -15.0023125319       -2.1756679961       -3.6121672567
 H       -16.3749928650       -1.9923689676       -0.0964629093
 H       -16.2891484173       -1.0624514733       -1.5561521716
 H       -14.9053784363       -1.8663752407       -0.8921652550
 H       -21.8604466446       -3.0867490366       -4.2658595097
 H       -23.3179811181       -3.3523218035       -3.4792807127
 H       -23.1886514575       -4.1993989970       -4.9229898867
 H       -22.9414091557       -5.2487770280       -1.4365660615
 H       -22.4490674787       -6.7112438373       -2.2061968796
 H       -23.9355289136       -5.8109631773       -2.7254768529
 Na      -18.1334416707       -6.4210687416       -2.7248887879
 Na        6.0601649166        3.8133472855      -14.5109500270
