232

 C       -12.1501429115        4.9769816954      -19.6885210451
 C       -10.9671347593        4.0081537278      -19.6553246681
 O       -10.6333842355        3.4469787308      -18.5953487039
 C       -10.1161115781        3.9830867513      -20.9790472796
 C       -10.5873824513        2.6252202402      -21.7682447188
 O       -10.4203550146        1.5943487500      -21.1189784293
 C       -11.1320718580        2.6964529962      -23.1905770088
 C       -12.0794086815        1.5267869632      -23.4095450490
 C       -13.2118848852        1.7551488707      -22.4008864272
 O       -13.3763550291        2.8456324829      -21.8711538995
 C       -14.2233992732        0.7173779574      -22.0911420238
 C       -13.4967889731       -0.2638520122      -21.1158128331
 O       -12.6946917680       -1.0659097351      -21.5355416942
 C       -13.8873131624       -0.2724186439      -19.6210143759
 C       -13.0144632162       -1.2021306283      -18.8093220516
 C       -11.6273100589       -0.6530240436      -18.6349921233
 O       -11.4314670568        0.5000152938      -18.3776252818
 C       -10.4309841810       -1.6837203327      -18.5622738625
 C        -9.0696324474       -1.0270224860      -18.4150159923
 O        -8.7019557427       -0.3638795363      -19.3886393822
 C        -8.1860833220       -1.0687344900      -17.0996773292
 C        -6.8917108346       -0.2581621767      -17.1443211786
 C        -7.0929577498        1.1588089444      -16.6430557639
 O        -8.0416937576        1.8762855670      -16.9613780590
 C        -5.9107070588        1.7729210866      -15.7842073390
 C        -5.7678408676        1.0732089116      -14.4239263858
 O        -6.6669855848        0.3795732345      -14.0259643660
 C        -4.4484965462        1.2824203491      -13.5265868617
 C        -4.1499820906        0.1718846514      -12.5584094870
 C        -2.6249072482        0.0966492049      -12.1444819109
 O        -1.7707467137        0.8101802004      -12.6126771794
 C        -2.3025019831       -0.8646383470      -10.9762039843
 C        -0.7609766375       -0.9221293283      -10.7304420149
 O        -0.2106011890       -0.5921526135       -9.7154005713
 C         0.1064825333       -1.3061048007      -11.9813993800
 C         1.2236090603       -2.2855978341      -11.7220311472
 C         0.9001607936       -3.6640507832      -11.2162926377
 O        -0.1813567437       -4.1956201157      -11.2714390438
 C         2.0450333542       -4.4514795443      -10.3824884094
 C         2.1029922605       -3.8995570404       -8.9817006667
 O         1.9226111392       -2.7101815612       -8.7514093176
 C         2.5516439650       -4.7684056425       -7.7033657943
 C         3.4701944124       -3.8160065273       -6.8780946822
 C         3.5798589011       -4.4453671636       -5.4641249708
 O         3.0116734777       -5.4105395164       -5.0318484506
 C         4.5843936277       -3.6133041109       -4.3719024222
 C         4.6920936902       -2.1415979348       -4.8321173604
 O         5.4051272124       -1.9667215384       -5.8079807900
 C         4.0793872253       -1.0102034394       -3.9580696462
 C         4.0053825851        0.3506189651       -4.6401417695
 C         3.1962183042        0.3028681787       -5.8739223037
 O         2.4124230811       -0.6057919656       -6.0750044552
 C         3.1000323127        1.6659323675       -6.8656432921
 C         1.6542797195        2.2491316445       -6.6451743325
 O         0.6987602875        1.4985772892       -6.8644435979
 C         1.5352791093        3.7564122149       -6.3209563150
 C         0.0777924020        3.7820532367       -5.5222546902
 C         0.0521867097        3.0800155562       -4.1388574658
 O         1.0651180176        2.7078633024       -3.6137499399
 C        -1.3275285207        2.7404421571       -3.5740177096
 C        -1.9921485666        1.5032470966       -4.5407493990
 O        -2.9055665684        1.6417703080       -5.3112351385
 C        -1.3380324412        0.0797930437       -4.5725160712
 C        -2.3819296529       -1.0068539369       -4.6098638640
 C        -2.0197198860       -2.1648049918       -5.6030647961
 O        -1.0935381865       -2.0532632780       -6.3543256303
 C        -2.7928302789       -3.5325676605       -5.5316692021
 C        -3.3174987342       -3.6810512741       -4.0585698522
 O        -4.3712918319       -3.2218243282       -3.6393343228
 C        -2.2834667713       -4.3633693580       -3.0484423498
 C        -3.0113418816       -4.7822887401       -1.6976152405
 C        -2.2608523620       -4.2468141605       -0.4822286033
 O        -2.3845284372       -3.0866218366       -0.1563144157
 C        -1.1925052792       -5.1452227387        0.3296132387
 C        -0.9306930985       -6.5036858236       -0.3941197630
 O        -1.1709493212       -6.6278036142       -1.5842165982
 C        -0.2881281587       -7.6068204010        0.4225877025
 C        -0.2960783886       -8.8963180630       -0.4019144575
 C         0.9170944191       -9.7680275558       -0.2503200129
 O         1.9982845066       -9.2097775571       -0.3197496937
 C         0.8760809156      -11.3159493191       -0.6662090047
 C        -0.0830583785      -11.5111108706       -1.9377097522
 O        -1.2590486250      -11.6329022156       -1.7064551971
 C         0.4938834848      -11.5842292376       -3.3181659652
 C         2.2855022085      -11.8352290628       -0.9669893568
 C         0.2947742111      -12.0965575250        0.5125227051
 C         0.2059621264       -4.3710020863        0.3493672466
 C        -1.8109432267       -5.2223162818        1.6623514368
 C        -4.0496442789       -3.4262287658       -6.4576810668
 C        -1.9452667103       -4.7151437308       -6.0908895135
 C        -1.3117034011        2.2625485930       -2.1358256870
 C        -2.3159552747        3.8836819066       -3.8878903863
 C         4.3682421708        2.6328183587       -6.5807702971
 C         3.0791823972        1.3582616406       -8.4091386386
 C         3.6642909934       -3.8380386672       -3.0438126506
 C         5.8868948779       -4.3127499168       -4.2658583540
 C         1.6741982552       -5.9572175624      -10.3223147067
 C         3.4443754769       -4.3223604308      -11.0447679465
 C        -2.9893491516       -0.2366375404       -9.7653956516
 C        -2.8366776864       -2.2955498987      -11.0440215741
 C        -4.6603285029        1.7029888349      -16.6748251417
 C        -6.2534873446        3.2230140412      -15.4758118972
 C       -10.7535399199       -2.5433055703      -17.2758057990
 C       -10.3990404940       -2.5636320797      -19.7863290829
 C       -15.4611309214        1.4554631718      -21.5385101597
 C       -14.6010791497       -0.0898229777      -23.3501012152
 C       -10.5019764611        5.1991433302      -21.9185079079
 C        -8.5993072321        3.9818964012      -20.7134044313
 H       -12.9041625534        4.5365462338      -20.3656137960
 H       -11.8675992729        5.9363162578      -20.0308746096
 H       -12.6551120970        5.0690501185      -18.7073568007
 H       -10.2348932611        3.0161593055      -23.7864189493
 H       -11.7618294939        3.4854006681      -23.4108160153
 H       -11.7956911694        0.4988667888      -23.2946033193
 H       -12.4455509763        1.6124875814      -24.3775096759
 H       -14.9554399256       -0.5834373644      -19.4858482765
 H       -13.9524136802        0.6877594362      -19.1512729590
 H       -12.7816800525       -2.1654532775      -19.3234918117
 H       -13.4598913632       -1.5051485089      -17.8332197196
 H        -7.9003383979       -2.0568919982      -16.8312908084
 H        -8.7752999858       -0.6158780639      -16.2086270802
 H        -6.6189863510       -0.2492013820      -18.2360306135
 H        -6.1579829307       -0.8228085536      -16.6851196815
 H        -4.4926418009        2.1724167224      -12.9521232245
 H        -3.6759357155        1.5433039671      -14.2687552968
 H        -4.5667823215       -0.7880553146      -12.8645391135
 H        -4.8045927414        0.2814831581      -11.6740924668
 H         0.4910705447       -0.2905563037      -12.3979657430
 H        -0.4717070584       -1.6498312750      -12.8222463020
 H         1.7479216060       -1.8329748400      -10.8312334872
 H         1.9397823595       -2.4221941848      -12.4980455580
 H         2.9977687539       -5.6160496661       -7.8864276423
 H         1.6680936795       -4.9061513882       -7.1531710853
 H         3.0278482336       -2.7711832473       -6.7734534845
 H         4.4240468102       -3.7765078882       -7.4121188165
 H         4.6708406880       -1.0406663545       -3.0033566867
 H         3.0815670792       -1.2983135580       -3.5536307860
 H         5.0352105763        0.6917419776       -4.7507505214
 H         3.3659614419        1.0552622019       -4.0052132351
 H         1.5144677967        4.4932730835       -7.1428352039
 H         2.4106471777        4.1409888999       -5.7303038827
 H        -0.6050008438        3.3355354421       -6.2518644440
 H        -0.4262560295        4.7145409747       -5.2524984648
 H        -0.6082596850       -0.0418685148       -3.7627967581
 H        -0.7043764972        0.0842038957       -5.4307781636
 H        -3.3271325836       -0.5869094766       -5.0419904095
 H        -2.5585628700       -1.4400211665       -3.5888252936
 H        -1.5203375880       -3.6243257966       -2.8624291432
 H        -1.8728433935       -5.2387891409       -3.5379146203
 H        -3.4177288777       -5.8116971282       -1.6967859120
 H        -3.9892358943       -4.3238638275       -1.7334197585
 H        -0.9459476859       -7.7969308765        1.2290554860
 H         0.6545729928       -7.4207853426        0.7759194631
 H        -0.4319051231       -8.5787590463       -1.4897559855
 H        -1.2352420277       -9.4015485148       -0.3121053392
 H         0.0470588791      -12.4915023222       -3.8148153077
 H         1.5464350107      -11.8561130622       -3.3405614331
 H         0.3442605490      -10.7179117574       -3.9480115990
 H         2.9264944756      -12.0655143919       -0.1075305080
 H         2.7419586927      -11.1245330341       -1.7248147763
 H         2.1070968695      -12.7884692839       -1.4964767559
 H         0.5521501234      -13.1819112512        0.3819241975
 H        -0.7961596082      -11.9820877270        0.5186637425
 H         0.7937821839      -11.8555335330        1.4442963248
 H         1.0037960771       -4.9114600969        0.9237280576
 H         0.0499228985       -3.3653064870        0.7243138870
 H         0.5943825849       -4.2117485432       -0.6827816203
 H        -2.1772766838       -4.1825427856        1.8714960657
 H        -1.1022619248       -5.7185302300        2.3503218749
 H        -2.7329379096       -5.8451071498        1.5919093814
 H        -4.5435932037       -4.4135789360       -6.6305395154
 H        -3.8938005504       -2.9320837644       -7.3761792925
 H        -4.7543577699       -2.8661542727       -5.7970353967
 H        -2.5018929187       -5.4672394578       -6.6384746395
 H        -1.1551380053       -5.1293683472       -5.4698437958
 H        -1.4491238330       -4.1655568118       -6.9568879127
 H        -2.2777566924        2.1250181722       -1.6120712919
 H        -0.6139319904        2.8603457095       -1.5009529439
 H        -0.9149381155        1.2666281958       -2.1209325264
 H        -2.3814648491        4.1327160257       -4.9955519207
 H        -2.0338999771        4.7909797829       -3.4738456767
 H        -3.3259321805        3.5108170736       -3.7174593863
 H         4.4447598792        3.4943368057       -7.4018160115
 H         5.2740746595        2.0194264617       -6.5421761193
 H         4.2296531270        2.9680661145       -5.5706306431
 H         2.7840423099        2.2351932551       -9.0100988959
 H         2.2372845148        0.6446980448       -8.6005431748
 H         4.0664745114        1.0259690043       -8.7995276461
 H         2.7409745740       -3.4236763356       -3.2808108808
 H         4.0640695220       -3.4193401179       -2.1414486292
 H         3.3785345933       -4.8711482321       -2.8579392003
 H         6.2997126607       -4.0109237341       -3.3527893446
 H         6.5465359009       -3.8851877690       -5.0634875893
 H         5.8295707240       -5.4351273996       -4.4010764381
 H         2.4469218973       -6.4153368693       -9.8293160922
 H         1.4076214108       -6.5427184740      -11.2616276692
 H         0.7711923693       -5.9306121597       -9.7160680555
 H         4.0473932168       -5.2856847976      -10.8343049563
 H         3.8706774163       -3.5169710327      -10.5086467911
 H         3.3903710963       -4.2801304350      -12.1665733992
 H        -4.0502575254       -0.4669173113       -9.8896186650
 H        -2.9399947312        0.8192323229       -9.5925424751
 H        -2.6144592178       -0.7371229430       -8.8216968771
 H        -2.8353100914       -2.7454496508      -10.0525302597
 H        -2.4356011306       -2.9911227328      -11.7066016816
 H        -3.8513983666       -2.2697978747      -11.3189763066
 H        -3.7767974587        1.7677335033      -15.9924793361
 H        -4.5934875323        2.5725318247      -17.3294270056
 H        -4.6492074200        0.9247907652      -17.3822012596
 H        -5.4528718058        3.8364923564      -14.9970082902
 H        -7.2156421809        3.4227681287      -14.8366288499
 H        -6.6765328182        3.7076096307      -16.3688600271
 H        -9.9804611191       -3.2842236541      -17.1788283823
 H       -11.7010068824       -3.0463356477      -17.4741084964
 H       -10.6961926755       -1.8896931657      -16.3483196168
 H        -9.8450059305       -3.4608484836      -19.7276039441
 H       -10.0282105514       -1.9132122880      -20.6758550838
 H       -11.3137077461       -2.9173620522      -20.0260235041
 H       -15.6857340006        2.1699921524      -22.3058259613
 H       -15.2266718705        2.0965487879      -20.6520218099
 H       -16.3423834711        0.8527755964      -21.2957961522
 H       -15.2749885525        0.4761999389      -24.0192583922
 H       -15.1495871333       -1.0327383916      -23.0356827875
 H       -13.7301177825       -0.3658863653      -23.9464507254
 H        -9.9019687352        5.0629768087      -22.8677474676
 H       -10.1386394773        6.1524394460      -21.5201870031
 H       -11.5258525963        5.2506328834      -22.1389744585
 H        -8.3266107950        5.0703342431      -20.6225317291
 H        -7.9914611032        3.5493492805      -21.5451443841
 H        -8.3366027997        3.4630069385      -19.8252450726
 Na       -9.2319838997        1.6885402384      -18.7718762129
 Na        0.6244458781       -0.9200252488       -7.5172853662
