232

 C       -12.1194214919        5.1967880382      -19.3468379488
 C       -10.9504243840        4.3057039390      -19.5517258503
 O       -10.5763328139        3.5464514703      -18.7137872248
 C       -10.1084545161        4.1568996525      -20.9340484732
 C       -10.5811580735        2.7594084800      -21.5752537764
 O       -10.3086817326        1.7013567627      -21.0492113775
 C       -10.9547717043        2.6709340348      -23.0821714262
 C       -12.1461858319        1.6619340429      -23.3533298689
 C       -13.3725642509        1.9235589759      -22.3333603444
 O       -13.4424264818        2.9057257704      -21.6538760997
 C       -14.4115665452        0.6734309509      -22.0498094352
 C       -13.6318389900       -0.3173252787      -20.9762881344
 O       -12.8939827859       -1.1960249822      -21.3790881726
 C       -13.8804029953       -0.1663365154      -19.4682054442
 C       -13.0132194906       -1.2373737423      -18.6914999743
 C       -11.4995560202       -0.7321409337      -18.5729572571
 O       -11.3172661272        0.4633802690      -18.4693070809
 C       -10.2927985150       -1.7258002904      -18.4930246202
 C        -8.8642982829       -1.0333061163      -18.4106040551
 O        -8.3433559095       -0.4304257586      -19.3233158040
 C        -8.0514871340       -1.3914572095      -17.1328176231
 C        -6.7783405201       -0.3607745048      -17.0653265128
 C        -7.0526617288        1.0970613220      -16.5789511776
 O        -8.1044944190        1.7178260315      -16.7253753135
 C        -5.8456260732        1.7890150085      -15.7299202044
 C        -5.7366699147        1.0505922819      -14.3011606809
 O        -6.6546001392        0.3260909378      -13.9112276066
 C        -4.4440244985        1.2109632320      -13.5693769914
 C        -4.2685391571        0.2489454269      -12.3948375070
 C        -2.7148464290        0.1558717237      -12.0639593173
 O        -1.8517070248        0.7519934059      -12.6905183605
 C        -2.2730407232       -0.8428663430      -10.9626985824
 C        -0.6790286275       -0.9667404377      -10.8516889645
 O        -0.1252475309       -0.5666463431       -9.8125851753
 C         0.0327650814       -1.4867898199      -12.0754890589
 C         1.3346848952       -2.1035359208      -11.6245898223
 C         1.0091697903       -3.5429263655      -11.2197615980
 O        -0.1585924372       -3.8730477139      -11.2368532723
 C         1.9576436385       -4.4185208123      -10.4261176648
 C         2.1066123052       -3.7697889680       -9.0436093379
 O         1.6821833075       -2.6678578757       -8.7849810468
 C         2.7819546195       -4.4757665546       -7.8829537570
 C         3.3535215058       -3.5716873916       -6.8630651711
 C         3.5365252616       -4.3567518039       -5.5192605967
 O         2.9681141945       -5.4453853151       -5.3195884054
 C         4.4670960656       -3.6015921803       -4.3932717584
 C         4.6219148679       -2.1353366052       -4.9060241416
 O         5.1844596846       -1.8514998870       -5.9699884458
 C         4.1206991150       -0.9190764176       -4.0472951910
 C         4.1587296552        0.3854388064       -4.8696967661
 C         3.0230975650        0.4070363012       -5.9839127400
 O         2.3235784448       -0.5786366195       -6.1026407275
 C         2.8981667349        1.5896557902       -6.9515678015
 C         1.4015508475        2.1262822081       -6.8731144917
 O         0.4827465337        1.3743170710       -7.1244456884
 C         1.1902522346        3.6652170416       -6.4149183330
 C         0.0397686183        4.0680951839       -5.5617706369
 C        -0.1143932854        3.1286645858       -4.3605309365
 O         0.9317503731        2.6555237851       -3.8704740606
 C        -1.4431442738        2.6902934475       -3.7286554347
 C        -1.9301439546        1.5041460810       -4.6952125477
 O        -2.9252430210        1.5043103586       -5.3956272041
 C        -1.1482446852        0.1940776084       -4.6167259969
 C        -2.1613108917       -0.9731503542       -4.5787426595
 C        -1.8612113218       -2.1281094746       -5.5454165313
 O        -0.8862710507       -2.1011326582       -6.3393130305
 C        -2.7476577727       -3.4323976537       -5.4511629395
 C        -3.3975100818       -3.7661148552       -3.9534498477
 O        -4.5115306437       -3.2749844199       -3.7867798069
 C        -2.5526896721       -4.5657173389       -3.0183113429
 C        -3.1669036337       -4.7345213031       -1.6254544281
 C        -2.2225573967       -4.1391998223       -0.4691999803
 O        -2.0792386574       -2.9582314077       -0.3627305786
 C        -1.2629507583       -5.1725651706        0.3743005939
 C        -0.9681401153       -6.6020345973       -0.3253192804
 O        -1.0316009717       -6.6940338960       -1.5499656889
 C        -0.1860753637       -7.7186094115        0.4223656098
 C        -0.2480780210       -9.1589403185       -0.2305995931
 C         1.0283472419       -9.9700906851       -0.3249331264
 O         2.0802631683       -9.3918753005       -0.0994508527
 C         0.8899759423      -11.3665899951       -0.7984135876
 C        -0.0942687758      -11.4535434578       -1.9769119954
 O        -1.2966331615      -11.5550999142       -1.7620552853
 C         0.5107007197      -11.3147859861       -3.3852809803
 C         2.3101013470      -11.9917878631       -0.9670703071
 C         0.2979399573      -12.0224015076        0.4874298284
 C        -0.0058043188       -4.3747596465        0.5506730295
 C        -1.9295371761       -5.3778707140        1.7891303471
 C        -3.9079780295       -3.1549605716       -6.4258914536
 C        -1.7680624587       -4.5809283288       -5.9252177781
 C        -1.2636000596        2.1956214665       -2.2635821840
 C        -2.5167104306        3.8477673315       -3.8468792062
 C         3.9672958750        2.6603175546       -6.5356309745
 C         3.1910964520        0.9506342810       -8.3963491451
 C         3.8213408256       -3.7013737654       -3.0324605571
 C         5.9184071392       -4.3789006548       -4.4323089667
 C         1.5221830030       -5.8849314511      -10.4185685014
 C         3.4204589336       -4.2424469272      -11.0704662748
 C        -2.7883252913       -0.2500071937       -9.5967046440
 C        -2.8355369329       -2.2431736789      -11.2062012015
 C        -4.5027165060        1.7093500896      -16.6215575535
 C        -6.1722864322        3.2218303928      -15.4622746488
 C       -10.5649669840       -2.7025691095      -17.3570117722
 C       -10.2281546120       -2.5692501917      -19.7717196325
 C       -15.7711491765        1.1303965696      -21.4709823341
 C       -14.6181592769       -0.1749372153      -23.3343052855
 C       -10.3385118498        5.3842256940      -21.8008471647
 C        -8.5116003637        3.9593525537      -20.5383696702
 H       -12.8644831587        5.0847522890      -20.0751936874
 H       -11.7629140786        6.2312839270      -19.3138603878
 H       -12.4562076077        4.8966326094      -18.3714178419
 H       -10.1805084697        2.2563090502      -23.7178096953
 H       -11.0760063848        3.6540096347      -23.6957541447
 H       -11.8370029751        0.5916523514      -23.2051630320
 H       -12.3613441862        1.7740371310      -24.4867963263
 H       -14.9082436147       -0.3074101185      -19.2193383724
 H       -13.8068596130        0.8715972908      -19.0725997928
 H       -13.1059247494       -2.2309913298      -19.0863581453
 H       -13.3152413498       -1.2947770182      -17.6499725661
 H        -7.6696798342       -2.4653666643      -17.1638891573
 H        -8.5999239439       -1.2766935385      -16.2584738786
 H        -6.3429839690       -0.4738659544      -18.0451465814
 H        -6.0151913479       -0.8412778358      -16.3294351211
 H        -4.3244011889        2.2927083512      -13.3110614499
 H        -3.7064805965        1.1771535497      -14.3362124199
 H        -4.7519858438       -0.7236535549      -12.6435205937
 H        -4.8845404869        0.4370061662      -11.5196370103
 H         0.1941315915       -0.6030702306      -12.6549925565
 H        -0.5040653356       -2.1964061862      -12.7581762047
 H         1.6948116925       -1.5302596712      -10.7911977735
 H         2.0784811761       -2.1914876809      -12.4721689899
 H         3.5690316730       -5.2044663000       -8.4551332277
 H         1.9168195470       -5.0842647124       -7.4244111882
 H         2.6130534519       -2.7727203268       -6.7324216796
 H         4.2525184019       -3.1691660580       -7.2199977513
 H         4.7259833145       -0.8919560850       -3.1609550873
 H         3.1376150728       -1.1230367032       -3.6340102677
 H         5.0607180941        0.0792202643       -5.4252786727
 H         4.3151187571        1.2516610990       -4.2716757307
 H         0.9882569083        4.2726669467       -7.3050265131
 H         2.0426714897        4.2198966967       -6.0523025316
 H        -0.8830555778        3.8757175669       -6.1787738421
 H         0.0485355227        5.1590858440       -5.3784793377
 H        -0.4552942615        0.1845815276       -3.7849620893
 H        -0.4522443882        0.1652321963       -5.5052309287
 H        -3.1817317754       -0.7008177875       -4.6939148956
 H        -2.0040140151       -1.5104492673       -3.6742218613
 H        -1.6140850476       -3.9475492107       -2.9246982249
 H        -2.3353258662       -5.5481807401       -3.4879866738
 H        -3.5188500356       -5.7669999713       -1.5285825277
 H        -4.1837290650       -4.2266255614       -1.5642762052
 H        -0.3962777830       -7.9267452866        1.5113483011
 H         0.9339451998       -7.4164336644        0.2873631724
 H        -0.5821463048       -9.0902421354       -1.2524108802
 H        -1.1581737020       -9.6675272469        0.1777860694
 H        -0.1026082667      -11.2449313482       -4.2384722413
 H         1.2523467432      -12.0663481565       -3.6537222368
 H         1.0653548997      -10.3765057077       -3.2448721888
 H         2.8120885900      -11.9514066601       -0.0049217530
 H         2.8912825709      -11.4370547762       -1.6536595766
 H         2.1918667448      -13.0250312123       -1.2623523390
 H         0.4009447377      -13.0781821640        0.4792786733
 H        -0.7834988026      -11.8350687526        0.3961874286
 H         0.7959358586      -11.7114159889        1.4120581834
 H         0.5945488363       -4.8692495248        1.2776585808
 H        -0.2683153930       -3.3530139872        0.9588843653
 H         0.6288839579       -4.2799104391       -0.2881299206
 H        -2.0690738011       -4.4600508761        2.2528111363
 H        -1.3812977172       -6.0664266583        2.3363121402
 H        -2.8455159451       -5.8889121680        1.5875535934
 H        -4.8595013811       -3.5416809131       -6.0470716622
 H        -3.6727253690       -3.7148352242       -7.3909548909
 H        -4.1650437508       -2.1177184450       -6.5661416003
 H        -2.3039599603       -5.5633910967       -5.7308187337
 H        -0.9519543219       -4.6159456867       -5.1642316579
 H        -1.4429795226       -4.6734068015       -6.9440342044
 H        -2.1879887444        1.8593667777       -1.8313647013
 H        -0.9578540188        2.9794859972       -1.6061782636
 H        -0.6394106075        1.3030170745       -2.1337553729
 H        -3.1906300613        3.6978795630       -4.6380550938
 H        -1.9989739814        4.8349057930       -4.1260722034
 H        -3.1855550128        3.8242392051       -2.9787973773
 H         3.8370712560        3.3913342113       -7.2288303909
 H         4.9648840146        2.2895948482       -6.7154750414
 H         3.8436861159        3.0027911425       -5.4912331590
 H         3.1735394601        1.7413910358       -9.1719885396
 H         2.3253688403        0.3365245692       -8.6644433837
 H         4.1379950952        0.4072681721       -8.4122061306
 H         2.7118524753       -3.7642718385       -2.8253222984
 H         4.3306820084       -2.8984591471       -2.4648585288
 H         4.1576482147       -4.6251534904       -2.6004858542
 H         6.7094881398       -3.8930251104       -3.7875703657
 H         6.3007374209       -4.3916972783       -5.4024497300
 H         5.7180579908       -5.4116859889       -4.0876338860
 H         2.4541566677       -6.5042970209      -10.1135810385
 H         1.1754988765       -6.1962411765      -11.3554777374
 H         0.6508056445       -6.0128568825       -9.7494870826
 H         3.9309086210       -5.0798878151      -10.7956018924
 H         3.9256371845       -3.3928702885      -10.5609347862
 H         3.4183311996       -4.2760418120      -12.1151120168
 H        -3.8531529863       -0.3423697737       -9.5335100996
 H        -2.5717188967        0.8170653550       -9.4298884873
 H        -2.3889274740       -0.8089170630       -8.7915098361
 H        -3.0664323389       -2.7480245012      -10.2760330510
 H        -2.0504157944       -2.9522895001      -11.6574518544
 H        -3.7118196093       -2.4101970207      -11.9087187747
 H        -3.5885294949        1.7553338803      -16.1239685558
 H        -4.4053264829        2.5683130977      -17.2960990910
 H        -4.6226587495        0.8203964566      -17.2978489449
 H        -5.4724805583        3.6435152059      -14.7949842009
 H        -7.0783827797        3.3103946133      -15.0102860965
 H        -6.3954436505        3.8412655528      -16.3097465679
 H        -9.6914722396       -3.2818054111      -17.0840836167
 H       -11.5358584889       -3.2455462007      -17.5957271053
 H       -10.6227083708       -2.0740162718      -16.5455745333
 H        -9.3503185436       -3.2165267881      -19.7100731265
 H       -10.1180224341       -1.9706506959      -20.5956078430
 H       -11.0512201319       -3.3562958666      -19.9960234491
 H       -16.3071014856        2.0421545725      -21.8535685201
 H       -15.6004349107        1.3189540476      -20.4380806583
 H       -16.4719222762        0.2811621702      -21.4050188231
 H       -14.6002366348        0.3507986718      -24.2953465861
 H       -15.4978284726       -0.7568193574      -23.2622896537
 H       -13.6858428914       -0.7894256909      -23.4026949352
 H        -9.7382530562        5.3784417267      -22.6960698331
 H       -10.0540395669        6.2836955377      -21.2178475544
 H       -11.4400801582        5.4774473327      -22.0315708371
 H        -8.2617718926        4.4898395773      -19.6457647000
 H        -7.9508337624        4.4054306567      -21.3334147144
 H        -8.2020874411        2.8542535253      -20.4779258511
 Na       -9.4681897760        1.6218721995      -18.7713666221
 Na        0.6505439828       -1.0964646781       -7.6990380132
