232

 C       -12.0304113921        5.2835938045      -19.3374611314
 C       -10.8793889426        4.3291782043      -19.5142383084
 O       -10.5788787794        3.6063905894      -18.5964390072
 C       -10.0577913781        4.2337704146      -20.9372020776
 C       -10.4452286608        2.8581232193      -21.6147101446
 O       -10.2568588200        1.8883522024      -20.8835344910
 C       -11.0169178676        2.6406540845      -22.9799316874
 C       -12.2727112259        1.6359952344      -23.0624460844
 C       -13.4045834993        1.8389192288      -22.1263449073
 O       -13.5795788545        2.8438743677      -21.5053070300
 C       -14.3566504625        0.5930099431      -21.9606474981
 C       -13.6371313614       -0.2769142460      -20.9694363488
 O       -12.9858749029       -1.1825926065      -21.4377605692
 C       -13.7859322653       -0.2126398370      -19.4300171579
 C       -12.8620813207       -1.1400417725      -18.6195959267
 C       -11.4053809821       -0.6936443754      -18.5809962101
 O       -11.2215409722        0.4717614795      -18.4938514350
 C       -10.1925290946       -1.8410701263      -18.4655487126
 C        -8.8429451890       -1.1482438485      -18.3321187095
 O        -8.4474916036       -0.4668378708      -19.3079918886
 C        -7.9919975702       -1.3311748526      -17.0871093456
 C        -6.7325905125       -0.3748064450      -16.9465265850
 C        -7.0421014283        0.9578614759      -16.4271813522
 O        -8.0885958565        1.5450628454      -16.7484433273
 C        -5.8575303993        1.6970134898      -15.7714964360
 C        -5.5951606994        0.9910838317      -14.3928963682
 O        -6.5380102649        0.3707839733      -13.9574465322
 C        -4.3234790960        1.2395388883      -13.5216026487
 C        -4.2346666561        0.2682516510      -12.2842979662
 C        -2.7607255371        0.1153531020      -12.0465323826
 O        -2.0401355842        0.7274852116      -12.7978926218
 C        -2.2684286654       -0.8403786536      -10.8785348172
 C        -0.6890354947       -0.8733650575      -10.9063976808
 O        -0.1240208534       -0.5732688935       -9.8909216056
 C         0.0332473217       -1.2480110753      -12.1576284044
 C         1.3254830237       -2.0776230751      -11.7906506872
 C         0.9011460261       -3.4719063241      -11.2892584255
 O        -0.2608474389       -3.8329570146      -11.2777290399
 C         2.0438076545       -4.3466294209      -10.5354536690
 C         2.0951166598       -3.7526384259       -9.0865795631
 O         1.5487762601       -2.6838771949       -8.8809309758
 C         2.8875748301       -4.6057816250       -7.9289318326
 C         3.3419939347       -3.6325192719       -6.8688313527
 C         3.5244402533       -4.3212193515       -5.5335042692
 O         3.0509514794       -5.4132272754       -5.3426480356
 C         4.4235981013       -3.6004901917       -4.3790793461
 C         4.6361654323       -2.1186728049       -4.8542535403
 O         5.2259482271       -1.8826801662       -5.9136075875
 C         4.1217343038       -0.8575763466       -4.1424375792
 C         4.1784224477        0.4151799280       -4.9769677658
 C         3.0486912634        0.3243810514       -5.9833112725
 O         2.3111832324       -0.6175042430       -5.9518574754
 C         2.7911973289        1.5961557407       -7.0144929560
 C         1.3117566455        2.1272422601       -7.0360394992
 O         0.3225824169        1.4111591266       -7.1655478499
 C         1.1567417333        3.5932186565       -6.6750614935
 C        -0.1062540250        3.9780885895       -5.7586075959
 C        -0.1671761761        3.1095910341       -4.3836008660
 O         0.8791917889        2.5451407739       -4.0186913640
 C        -1.5795446679        2.7739233334       -3.7565142486
 C        -2.0481801485        1.4764532172       -4.6577038434
 O        -2.9123434591        1.5844627906       -5.4712696816
 C        -1.1171840566        0.1762876532       -4.5620560987
 C        -1.9699564061       -1.0717550665       -4.4749371550
 C        -1.6527425297       -2.2161235031       -5.4438699767
 O        -0.8547561613       -2.1855187778       -6.3736841760
 C        -2.6719618395       -3.4862339511       -5.4210346217
 C        -3.3847547183       -3.6524110080       -4.0136292828
 O        -4.5336056681       -3.3413869447       -3.7909382697
 C        -2.6975254212       -4.6283118223       -2.9620124889
 C        -3.1802036596       -4.7436902551       -1.4914827266
 C        -2.1105358798       -4.1837023766       -0.4634926080
 O        -1.9870480731       -2.9500525423       -0.4488135015
 C        -1.2722961512       -5.2095512138        0.3903883859
 C        -0.8454047851       -6.5509962430       -0.3687712785
 O        -1.0673167826       -6.6990220594       -1.5676323933
 C        -0.0991841523       -7.6261086258        0.4520037378
 C        -0.3809423213       -9.0319068895       -0.1910638668
 C         1.0226513672       -9.8201340697       -0.2813662389
 O         2.1149628912       -9.4016481556       -0.0009794075
 C         0.8639538127      -11.4124630339       -0.7087747590
 C         0.0082483694      -11.3974716303       -1.9649375524
 O        -1.1937404815      -11.5417652939       -1.8495730723
 C         0.4935021911      -11.1504197559       -3.3918725261
 C         2.2833543044      -12.1419263275       -1.0171125499
 C         0.2362997354      -12.1688971101        0.4724428575
 C         0.0503837900       -4.5230207118        0.6968642172
 C        -2.0821020938       -5.5460050066        1.7407983945
 C        -3.7639343898       -3.0562390193       -6.5037942960
 C        -1.7951926838       -4.6427319026       -5.8982514839
 C        -1.2567350410        2.1992433694       -2.3942608733
 C        -2.5765983038        3.9635107209       -3.8043572030
 C         3.7858541891        2.7332994657       -6.5821288593
 C         3.2277959772        0.8514753097       -8.3354985889
 C         3.9788326146       -3.6048650941       -2.9904974195
 C         5.7980450745       -4.2712041998       -4.6087832935
 C         1.5495768195       -5.7993436248      -10.4071708868
 C         3.5112005864       -4.2879305075      -11.1287261935
 C        -2.6860808627       -0.3354086608       -9.4809517074
 C        -2.9440832348       -2.2333885387      -11.1752403743
 C        -4.5655431181        1.7001060940      -16.6159008738
 C        -6.1671837255        3.1772719300      -15.4245794833
 C       -10.4703364027       -2.8556411589      -17.3108157235
 C       -10.1656858384       -2.5595388352      -19.8483030232
 C       -15.7245622548        1.0833483930      -21.4783712455
 C       -14.5402300099       -0.1353144061      -23.3281125539
 C       -10.3186385542        5.4869405427      -21.8052856223
 C        -8.5871058516        3.9962600680      -20.5169381896
 H       -12.7790121549        5.3378542944      -20.1612995319
 H       -11.5391373394        6.2595789194      -19.2172215700
 H       -12.4738902136        4.9925147373      -18.3226816683
 H       -10.5173913825        2.3368281348      -23.8996064284
 H       -11.2503669278        3.6595663902      -23.3041933872
 H       -11.8809924023        0.5551210697      -23.0950956463
 H       -12.7362740182        1.8089559999      -24.0799636612
 H       -14.8058810882       -0.4482514617      -19.0681975935
 H       -13.7984847422        0.8349161747      -19.1261980633
 H       -12.8952385210       -2.1352759078      -19.0693478642
 H       -13.1414988185       -1.2502961964      -17.5576373156
 H        -7.6235516290       -2.3295860327      -17.1463829619
 H        -8.5392047383       -1.2591336363      -16.1287262230
 H        -6.2447412450       -0.3848701837      -17.8919034483
 H        -6.0635859056       -0.8918338136      -16.2489885673
 H        -4.3806562096        2.3084452608      -13.2395093289
 H        -3.4220894745        1.3382110295      -14.1904953192
 H        -4.8664745816       -0.6014854976      -12.4633003374
 H        -4.6663975450        0.5602551668      -11.3624197996
 H         0.3805852211       -0.3305609991      -12.7354853097
 H        -0.5089740736       -1.8327221476      -12.8153238997
 H         1.8618232780       -1.5630575492      -10.9854412167
 H         1.9653919466       -2.2622280747      -12.6916243395
 H         3.7044659970       -4.9274931025       -8.5329159977
 H         2.2872242514       -5.4919279300       -7.5277134693
 H         2.5162445679       -2.7476542571       -6.9185086014
 H         4.3252810340       -3.2282526953       -7.1792917235
 H         4.6333184255       -0.7427224817       -3.2091243274
 H         3.0966077570       -0.9775243804       -3.8407107571
 H         5.1805416575        0.5039724808       -5.4265391580
 H         3.9478410393        1.1908009554       -4.2716020701
 H         1.3523735187        4.2324539125       -7.4536412863
 H         1.9021322872        3.9992969574       -5.9535023813
 H        -1.1279964765        3.9812747033       -6.1752977978
 H         0.1054986293        4.9925176322       -5.4633595312
 H        -0.3120983493        0.2679606834       -3.8423328363
 H        -0.5867074597        0.2319036439       -5.5446830316
 H        -2.9660779603       -0.8528026313       -4.8242120688
 H        -2.0061443390       -1.5561005370       -3.4812619619
 H        -1.6165334082       -4.4907394205       -2.9122897834
 H        -2.9184177837       -5.6216947021       -3.4175651500
 H        -3.4291317179       -5.7950980130       -1.4106153667
 H        -4.1280653855       -4.2453523671       -1.2405343866
 H        -0.4455749532       -7.7974516918        1.5165063656
 H         1.0319511575       -7.4936230061        0.4589148276
 H        -0.9365286269       -9.0396652082       -1.1322118758
 H        -1.0798105126       -9.5439398648        0.4321461136
 H        -0.1933209412      -10.7403571679       -4.1371660913
 H         0.7095698534      -12.1604550121       -3.7794959760
 H         1.4318068075      -10.6398882481       -3.4226792051
 H         3.0219276381      -11.9008610814       -0.2918530928
 H         2.6868085338      -11.7341015025       -1.9420542467
 H         2.1003325988      -13.1862485520       -1.0760000726
 H         0.2123190017      -13.2370525992        0.4317217676
 H        -0.8377437156      -11.8822830257        0.4746463899
 H         0.7903239354      -11.9210170148        1.3667562716
 H         0.6536560992       -5.0798750282        1.4144061122
 H        -0.0397293330       -3.4489763193        1.0391791739
 H         0.6802595099       -4.5592402796       -0.1477595277
 H        -2.2163595834       -4.5962062701        2.2390920305
 H        -1.4720228450       -6.1515240002        2.3516555765
 H        -2.9836602796       -6.1590404332        1.5651428181
 H        -4.7822692918       -3.0839812489       -6.0566899544
 H        -3.7349691150       -3.6585046064       -7.4102063810
 H        -3.7187888631       -1.9724179183       -6.6846307633
 H        -2.2041513653       -5.5024869562       -5.3752764274
 H        -0.7902712258       -4.6107753995       -5.5716854228
 H        -1.8815946037       -4.9432547564       -6.9253322130
 H        -1.8690840930        1.3762229351       -2.0321083625
 H        -1.3573910303        2.9136001294       -1.5528718446
 H        -0.2995988330        1.7332399034       -2.4407516522
 H        -3.3457418972        3.7743212288       -4.5263449239
 H        -2.1418381196        4.8954154302       -4.1127000854
 H        -3.1302657750        3.9428561832       -2.8687312683
 H         3.6003655644        3.6291636017       -7.2668006033
 H         4.7294095093        2.4586981725       -6.9415566816
 H         3.7490963894        2.9251875188       -5.5521349011
 H         3.3230375387        1.4833663644       -9.1779452167
 H         2.4786397843        0.0836517890       -8.6392172836
 H         4.1265145099        0.3863700972       -8.0616481031
 H         2.9044959346       -3.2861918584       -2.9455754360
 H         4.6268286657       -2.9015874763       -2.4036412356
 H         3.9120204493       -4.6021299203       -2.5291896085
 H         6.5749695294       -3.7623897716       -4.1071779399
 H         6.1041348622       -4.3015669845       -5.6376303683
 H         5.6492787984       -5.3304737341       -4.1577756600
 H         2.2777450171       -6.4312578811       -9.9836216307
 H         1.3819298385       -6.0998334114      -11.4603743978
 H         0.5509772469       -5.8716449856       -9.9462152725
 H         4.1435539744       -4.8984023965      -10.4761804094
 H         3.9470348551       -3.3099976323      -11.1435117708
 H         3.4940055371       -4.8173438470      -12.0674426696
 H        -3.7213560391       -0.3182961394       -9.3311376414
 H        -2.2992537004        0.6512301542       -9.2718988473
 H        -2.2751392496       -1.0606057454       -8.7209303810
 H        -3.1824141181       -2.8014780377      -10.2727361135
 H        -2.2614899505       -2.9367800178      -11.7237502179
 H        -3.8384046383       -2.2320159099      -11.8109228166
 H        -3.7822249523        2.2529932656      -16.0890309876
 H        -4.6436834674        2.3736183434      -17.4891555996
 H        -4.2668997508        0.6883942428      -16.9634766432
 H        -5.4601927950        3.5035639960      -14.7473350170
 H        -7.1584065848        3.2827615745      -14.9376778087
 H        -6.2874134730        3.8153271801      -16.2277464142
 H        -9.6339858870       -3.4061822175      -17.1106281531
 H       -11.4485480114       -3.3949549507      -17.5129448218
 H       -10.4516072960       -2.2253518521      -16.4323092287
 H        -9.3095036983       -3.2409278409      -19.9635290873
 H       -10.1482973534       -1.7963368163      -20.7624801584
 H       -10.9964395377       -3.2195371610      -20.0063300031
 H       -16.3104528044        1.6918101900      -22.2148080416
 H       -15.6783074528        1.6481722087      -20.5836193242
 H       -16.3139051871        0.2047807509      -21.1902326694
 H       -14.4253785483        0.5471708802      -24.1911464273
 H       -15.5042166074       -0.5720963868      -23.3783274834
 H       -13.6967646906       -0.7803897487      -23.4997809815
 H        -9.7299476629        5.4928784262      -22.7653179586
 H       -10.1207534523        6.4008224732      -21.2631283360
 H       -11.3274065656        5.4772287663      -22.0115634857
 H        -8.4353912158        4.1050008554      -19.4610379729
 H        -8.0693444590        4.8117333375      -20.9994407623
 H        -8.1501053492        3.0610061747      -20.8611429650
 Na       -9.6125553389        1.5847829572      -18.8220746414
 Na        0.5139820084       -0.9664960948       -7.7226351494
