232

 C       -11.5956631072        5.9376441309      -19.1149556753
 C       -10.5645975533        4.8811504531      -19.3627081950
 O       -10.1919016025        4.1009438907      -18.4929538342
 C        -9.9185725153        4.7214542431      -20.7069885043
 C       -10.5455977655        3.3392740895      -21.2554031972
 O        -9.8791413858        2.2982988790      -21.0255421519
 C       -11.7471924024        3.3494939787      -22.1442439432
 C       -12.3008994328        1.9621567676      -22.3152062677
 C       -13.4615292427        1.6605418613      -21.2284393192
 O       -13.5630172806        2.3558725624      -20.2479194952
 C       -14.3038106587        0.3673141394      -21.3672441269
 C       -13.6005104570       -0.7712640669      -20.5716324216
 O       -12.8079900333       -1.5586159725      -21.0981384153
 C       -13.7948042686       -0.7680134143      -19.0997337641
 C       -12.7750067913       -1.7443392194      -18.3779243570
 C       -11.3386928379       -1.0457808746      -18.4267004805
 O       -11.3087709089        0.1708316234      -18.4429323281
 C       -10.0230280421       -1.9849590400      -18.5334299423
 C        -8.7959393070       -1.2132564720      -18.1593112810
 O        -8.2372381962       -0.4372345726      -18.9424141498
 C        -8.0426862122       -1.5855565876      -16.8531249450
 C        -6.8098749003       -0.7609822520      -16.6952259788
 C        -6.9718969301        0.7955544119      -16.3797845733
 O        -7.9484179150        1.5123419934      -16.6397445785
 C        -5.8457858370        1.4748542178      -15.5735063446
 C        -5.5918978812        0.7663389912      -14.1201711740
 O        -5.7981089894       -0.3908055219      -13.9959852368
 C        -4.8791916936        1.6563525839      -13.0067743600
 C        -4.2965927319        0.8320634704      -11.8961806773
 C        -2.7795955855        0.4433040325      -12.1668359886
 O        -2.1524875484        1.0560439869      -12.9868116299
 C        -2.2237150670       -0.5804447950      -11.0004889786
 C        -0.6480129379       -0.7434320995      -10.9745472061
 O         0.0439079564       -0.4266590440      -10.0127194245
 C        -0.0040263285       -1.3287617452      -12.2717232538
 C         1.2929350541       -2.1272609738      -12.1376689590
 C         0.9457725466       -3.6027356177      -11.4992926729
 O        -0.0933227500       -4.1475259180      -11.8201872425
 C         2.0041730702       -4.3065950888      -10.5820562367
 C         1.8550717920       -3.6600207234       -9.1681400107
 O         1.2250406165       -2.6185286496       -9.0853412099
 C         2.7160816517       -4.3323072370       -8.1268435959
 C         3.5311509129       -3.3080454220       -7.3061130796
 C         3.6049740286       -3.8313701935       -5.8475509610
 O         2.8695429163       -4.6686793376       -5.4664445102
 C         4.6101100073       -3.2198243497       -4.9072344069
 C         4.6858593813       -1.6566739277       -5.0970045945
 O         5.4104376589       -1.1587325012       -5.9367612913
 C         3.6373327500       -0.6966580703       -4.3209364128
 C         3.4919920737        0.6362839149       -5.0174117748
 C         2.6401235932        0.4981151831       -6.2032702282
 O         1.8455597906       -0.4372646270       -6.2496181570
 C         2.6642459791        1.5880948218       -7.4262461269
 C         1.1137315086        2.0911419950       -7.5583126225
 O         0.1717556237        1.2923453920       -7.6430357595
 C         0.6926908900        3.5664323700       -7.5017524462
 C        -0.4434537150        3.8398035436       -6.3767147886
 C        -0.3253906825        2.8349868440       -5.0277294324
 O         0.7132696961        2.1664083743       -4.7953237621
 C        -1.5589928840        2.6315079345       -4.1720521670
 C        -2.2104921906        1.2238496972       -4.6601852219
 O        -3.3999723616        1.1170500454       -4.7645151414
 C        -1.2419260644       -0.0152243186       -4.6252227072
 C        -2.0649954134       -1.2379120149       -4.6242339591
 C        -1.6843857869       -2.5071131688       -5.3571748704
 O        -0.6283899735       -2.6287091621       -5.9781018722
 C        -2.7399685044       -3.7519217202       -5.4054534391
 C        -3.3432115009       -3.8194339281       -3.9020871131
 O        -4.2657125065       -3.1138833890       -3.5950219725
 C        -2.6430142072       -4.7405154011       -3.0054150211
 C        -2.9239986584       -4.5405224074       -1.5019543983
 C        -1.6181960257       -4.4730669434       -0.7536029893
 O        -0.6428579750       -3.7756705577       -1.0702944651
 C        -1.4097032986       -5.4182158213        0.4948629636
 C        -0.7205993012       -6.5741825397       -0.2438642023
 O        -1.0607230376       -6.8487993912       -1.3982488993
 C         0.1740340223       -7.5900679867        0.5381936663
 C        -0.1557349413       -9.0419562611        0.0990199757
 C         0.9713527950       -9.9865392002       -0.0616102063
 O         2.0949539578       -9.6585408454        0.1543463718
 C         0.6817842771      -11.4461624553       -0.7167522956
 C         0.0408239285      -11.1544704518       -2.0282648248
 O        -1.0297702564      -11.6035753742       -2.3828324985
 C         0.8613953427      -10.3759128437       -3.0472887595
 C         2.1432435845      -12.2026013473       -0.9247006215
 C        -0.1824149366      -12.0961727150        0.3292425413
 C        -0.4371360562       -4.7696221368        1.4721231530
 C        -2.6907991983       -5.8434812337        1.3570755802
 C        -3.8480353344       -3.2347104692       -6.4412183067
 C        -2.0942576372       -5.0719327729       -5.9540534542
 C        -1.1992595464        2.6713439327       -2.5987657313
 C        -2.7175709825        3.6891421329       -4.4849812960
 C         3.6944295259        2.6466507467       -6.9709621165
 C         3.1620614718        0.7565907548       -8.5772898544
 C         4.2669104660       -3.6469634090       -3.4633128177
 C         6.0458193052       -3.8118190653       -5.3195577073
 C         1.7256988400       -5.7865791080      -10.3688373408
 C         3.4109933912       -4.0891420032      -11.2465757062
 C        -2.5060752240        0.0618631215       -9.6923582565
 C        -3.0462578232       -1.9806459934      -11.1624553853
 C        -4.5246595808        1.3851607557      -16.3377612385
 C        -6.2257309650        2.9472883708      -15.3893232701
 C       -10.0923884555       -3.3052575013      -17.6451605886
 C        -9.9719586854       -2.4315711563      -20.1513187030
 C       -15.7356279137        0.5820070781      -20.8141325208
 C       -14.2445778875       -0.0498535347      -22.9141844311
 C       -10.1736984326        5.9731690473      -21.6220829108
 C        -8.4389320908        4.4944950626      -20.4816566618
 H       -12.5647439603        5.6158205231      -19.5447844256
 H       -11.3473115896        6.7988383396      -19.6882453045
 H       -11.6823250374        6.2236655030      -18.0385918637
 H       -11.5352141268        3.7383107174      -23.1049906008
 H       -12.4902797018        4.1140381642      -21.7829921990
 H       -11.6073743320        1.1861187336      -22.0068225444
 H       -12.7439406240        1.8478887466      -23.2630576286
 H       -14.8054217904       -0.9962959260      -18.7882300197
 H       -13.6361243814        0.2764885039      -18.7365806522
 H       -12.7673544343       -2.6351527449      -19.0069855299
 H       -13.0557954298       -1.9515330450      -17.3147950297
 H        -7.7635180257       -2.6950104268      -16.7785299747
 H        -8.6151983636       -1.4592757785      -15.9580954702
 H        -6.1665110758       -0.9148616598      -17.5545896610
 H        -6.3466800552       -1.2977880835      -15.7941494209
 H        -5.6381991425        2.3542266764      -12.5996470801
 H        -4.1082967350        2.2115069622      -13.4762808772
 H        -5.0839494093        0.0233249035      -11.8087732241
 H        -4.2891598829        1.4447501195      -10.9897129957
 H         0.2361824306       -0.4172420003      -12.9180866322
 H        -0.6667358460       -2.0180700269      -12.7165366532
 H         1.9603472272       -1.5906828999      -11.4936112701
 H         1.7125250176       -2.4728576549      -13.1148667404
 H         3.4434352586       -4.9631700009       -8.6234515316
 H         2.2904186990       -5.0399803405       -7.3319001584
 H         3.1669765181       -2.3776764752       -7.3266268748
 H         4.5173373212       -3.1642686327       -7.5359119697
 H         4.0523648756       -0.5167659242       -3.2881123064
 H         2.6038301034       -1.1555338764       -4.2065069410
 H         4.5357740145        0.9595678852       -5.3039756035
 H         2.8474926165        1.2922876891       -4.4274944580
 H         0.4167364586        3.8974965747       -8.5069194388
 H         1.5241607611        4.2573093881       -7.0749591982
 H        -1.4867168057        3.7219434072       -6.7128339141
 H        -0.1929294444        4.8282193213       -6.0091542734
 H        -0.6763548618        0.1062777626       -3.7268045024
 H        -0.5767712904        0.0495386764       -5.5122415264
 H        -3.0940153891       -0.9576177639       -4.9539839202
 H        -2.1755572607       -1.6330649519       -3.5792960170
 H        -1.5817389694       -4.8354731873       -3.2289758618
 H        -2.9621168979       -5.7340373234       -3.3228414400
 H        -3.5296493461       -5.3378268177       -1.1010603510
 H        -3.1688917065       -3.4575334004       -1.3820541288
 H         0.1924282265       -7.5190965699        1.5867309723
 H         1.1517919499       -7.3238613582        0.3183857542
 H        -0.5936241317       -8.8643695393       -0.9074480744
 H        -0.9397795540       -9.4317534236        0.7987901757
 H         1.8042426450       -9.9351807483       -2.6679290736
 H         0.2326122777       -9.5575894858       -3.4995162556
 H         1.0373514801      -10.9587909374       -3.9499150483
 H         2.5268499070      -12.5141100179        0.0596300086
 H         2.7773587904      -11.4587407419       -1.4683274850
 H         2.0254206869      -13.0661182276       -1.5887426331
 H        -0.2922246961      -13.1311943111        0.1530354222
 H        -1.2117455155      -11.6230911390        0.3823027241
 H         0.0986665269      -11.9118850336        1.3553091875
 H        -0.0208280254       -5.4049550916        2.2701923841
 H        -0.8265905588       -3.9001993305        2.0804897092
 H         0.3745052916       -4.2820712898        0.9544401954
 H        -3.3704120906       -4.9395638127        1.5975097559
 H        -2.2581299575       -6.1419639491        2.3148737205
 H        -3.3089882502       -6.6095905750        0.7902880113
 H        -4.2940096143       -2.2349275793       -6.4687932494
 H        -4.7470820858       -3.8185400206       -6.2098046065
 H        -3.5852310617       -3.5318194289       -7.4365053986
 H        -2.7353277424       -5.9300923990       -6.0163813456
 H        -1.2911624708       -5.3507561105       -5.2947089727
 H        -1.5526762555       -4.9340968571       -6.8495520710
 H        -0.1186510290        2.5265467924       -2.5086237424
 H        -1.5545391115        1.8039493231       -2.0045393666
 H        -1.5528595677        3.5320729235       -2.0274694102
 H        -3.1682904348        3.5392255175       -5.4740695584
 H        -2.3585979655        4.6893229032       -4.3690665106
 H        -3.5051591687        3.7353040955       -3.7165979174
 H         3.8726836539        3.4974527553       -7.7621404076
 H         4.6046944422        2.1504555625       -6.6838602307
 H         3.2332230171        3.1502621302       -6.1470506619
 H         3.6833670065        1.3524971926       -9.3263743049
 H         2.2229954891        0.2517740401       -8.9656561984
 H         3.8309385298       -0.0629709294       -8.3421609588
 H         3.1924174388       -3.6738168597       -3.3732230818
 H         4.5135102627       -2.9089790462       -2.7062283153
 H         4.7838498264       -4.5240347608       -3.1602885952
 H         6.8196964006       -3.3737681480       -4.7375534452
 H         6.1728701726       -3.6269591506       -6.4113511630
 H         6.1035866265       -4.9252229522       -5.1119493568
 H         2.4360708364       -6.2545070996       -9.7613483785
 H         1.7075607499       -6.3497678335      -11.3435466874
 H         0.8135568293       -5.9583684400       -9.7729932737
 H         3.9651284541       -5.0825367664      -11.4631809657
 H         4.1106549048       -3.4584750364      -10.6983235796
 H         3.3632574421       -3.4721214582      -12.2077460227
 H        -3.5550560745        0.2564437399       -9.5480579904
 H        -1.8986391810        0.9979897556       -9.6143000792
 H        -2.1676722162       -0.6159158263       -8.8438589076
 H        -2.6976727149       -2.6289540960      -10.4049636362
 H        -2.8842919037       -2.4775272621      -12.1096711448
 H        -4.0584823296       -1.7584686694      -11.0061114031
 H        -3.6781660929        1.0428905693      -15.7593888796
 H        -4.3526471583        2.3424475949      -16.8775020628
 H        -4.5362191271        0.5578028375      -17.1006933646
 H        -5.4079032409        3.6798845982      -15.1857658163
 H        -7.0616794320        3.0171113321      -14.5429044732
 H        -6.5460606504        3.3279652311      -16.3805647410
 H        -9.1771713289       -3.8745742319      -17.7272807380
 H       -10.8776755719       -3.9913816364      -17.9495054541
 H       -10.3721215210       -2.9162061325      -16.6069852812
 H        -9.1839102541       -3.1201809782      -20.3088133939
 H        -9.6594173084       -1.5525017302      -20.8295289733
 H       -10.8681679979       -2.7351815931      -20.5405561188
 H       -16.3293988686        1.4093438469      -21.2667775369
 H       -15.7071175122        0.9487702975      -19.8167482300
 H       -16.4687564221       -0.2211690141      -20.7438916379
 H       -14.5303447517        0.7870506327      -23.6239893166
 H       -14.7993323401       -0.9309377852      -23.0895742440
 H       -13.2281525533       -0.4242690695      -23.1070810475
 H        -9.5645410043        5.9159348038      -22.5733944606
 H        -9.8643537872        6.8745503550      -21.1059339510
 H       -11.1772803085        6.0328788596      -21.8791853261
 H        -7.9272806278        5.4019268059      -20.7856345259
 H        -8.1090619351        3.6038638495      -21.0137495296
 H        -8.2938449452        4.2784241505      -19.4104906355
 Na       -9.6652596376        1.6945973559      -18.5735116085
 Na        0.3066000285       -1.2021693799       -7.6063792556
