232

 C       -11.5951460174        5.9510722071      -18.8897989310
 C       -10.4631140272        4.8987730264      -19.2363543842
 O       -10.2993824329        4.0162204186      -18.4267792458
 C        -9.8606986787        4.7172466340      -20.6939292706
 C       -10.5465237437        3.4025549022      -21.1337623874
 O        -9.9916712622        2.3477394741      -20.8704881139
 C       -11.8466963305        3.4048759066      -21.8843653553
 C       -12.3346960058        2.0054608799      -22.2237767499
 C       -13.3725601961        1.6196469128      -21.0816019464
 O       -13.4357498298        2.4205938921      -20.1166757729
 C       -14.2315868516        0.3771421878      -21.3041364629
 C       -13.5757308939       -0.7360009477      -20.4682836229
 O       -12.8352059149       -1.5382044534      -20.9715531368
 C       -13.8871488775       -0.8949479008      -18.9640209961
 C       -12.7436493031       -1.8045904162      -18.4000189202
 C       -11.4259171610       -1.1401828290      -18.5236964600
 O       -11.2691846120        0.0547468394      -18.5301678066
 C       -10.0483889281       -1.9988348049      -18.5402174157
 C        -8.7184673252       -1.2092369219      -18.2001347156
 O        -8.2993566876       -0.3608089456      -18.9809077784
 C        -8.0379686350       -1.4707751540      -16.8952960098
 C        -6.7771573702       -0.6562992102      -16.6676773033
 C        -7.0669451514        0.8185537811      -16.2462683434
 O        -8.0269767853        1.4001496529      -16.6849241475
 C        -5.8146341546        1.4542208155      -15.5396281167
 C        -5.5334211468        0.7908781635      -14.1594982794
 O        -5.6492697303       -0.3868540763      -13.9074846236
 C        -5.0569526860        1.6945279463      -13.0405612586
 C        -4.3307611012        1.0149280682      -11.8314794747
 C        -2.9054114432        0.5220065167      -12.0636419722
 O        -2.1477283223        0.9693865706      -12.9032538312
 C        -2.2182810867       -0.4839112390      -10.9455171772
 C        -0.6760787064       -0.7597886263      -11.0543749135
 O         0.0260866979       -0.3986822797      -10.1308094685
 C        -0.1019426281       -1.4257760675      -12.2864646107
 C         1.2312998086       -2.1884948995      -12.1021364497
 C         0.9941037716       -3.6040173804      -11.6100146379
 O        -0.0135341018       -4.1921337120      -11.8733166117
 C         2.0798824032       -4.3069577626      -10.7573823473
 C         2.0098400822       -3.6610595508       -9.3159253560
 O         1.2267016997       -2.7559905468       -9.0275242578
 C         2.7433844707       -4.2946192174       -8.1754699994
 C         3.4713496258       -3.3200875720       -7.3504912002
 C         3.5477634732       -3.7186913083       -5.8604904494
 O         2.8338883710       -4.5902872387       -5.4423077848
 C         4.6140975804       -3.0650196744       -4.9200518107
 C         4.6536712781       -1.5776023751       -5.2145894146
 O         5.4038409296       -1.0394591244       -6.0181009914
 C         3.7846343095       -0.6687148567       -4.2261320679
 C         3.3900166357        0.6237595114       -4.8594395787
 C         2.5054620622        0.4950810703       -6.0940299709
 O         1.9562765826       -0.5774655438       -6.3022726805
 C         2.5625652097        1.5330578007       -7.3370116676
 C         1.0840899399        2.0665873197       -7.5573179531
 O         0.1586750970        1.2553624647       -7.7160299555
 C         0.6599807880        3.5487911491       -7.5493817484
 C        -0.3165902097        3.6092468848       -6.4120607759
 C        -0.2598664004        2.7828611954       -5.1251077883
 O         0.7325862208        2.1679072893       -4.9229174107
 C        -1.5564335163        2.7263411562       -4.2601911876
 C        -2.2620460406        1.2768164584       -4.4418323377
 O        -3.4392517359        1.0628330986       -4.6969529704
 C        -1.2804017869        0.0803222094       -4.7189850178
 C        -2.0294138048       -1.2954986625       -4.6942475034
 C        -1.6305402181       -2.5723557962       -5.5187214877
 O        -0.7303008722       -2.7526778029       -6.2689959843
 C        -2.7868620768       -3.7118217465       -5.4471598603
 C        -3.4830794371       -3.8688640093       -3.9958603622
 O        -4.4364029550       -3.2181270079       -3.6309060007
 C        -2.6695481421       -4.8375239519       -3.0031206362
 C        -2.9738196475       -4.4818749418       -1.4603599876
 C        -1.5690525034       -4.5144600658       -0.6780794509
 O        -0.6088287456       -3.9007460927       -1.0721045965
 C        -1.3506147996       -5.4853363593        0.6259069121
 C        -0.7680377876       -6.7857834848       -0.0784763962
 O        -0.9484428995       -6.8939297947       -1.2593054475
 C         0.2031217137       -7.7558346701        0.6088051568
 C        -0.2203807431       -9.1723227422        0.1727089201
 C         1.0743990373       -9.9973328889       -0.1270138186
 O         2.2210608441       -9.6845254149        0.1677998533
 C         0.6888888665      -11.3808923014       -0.6633286399
 C         0.1109859400      -11.2046320691       -2.2253402214
 O        -1.0100519930      -11.5715315589       -2.4029785444
 C         0.8673684244      -10.2086150537       -3.1500233286
 C         2.0498117261      -12.1943607956       -0.6670264468
 C        -0.2425716400      -12.1762034444        0.2838129256
 C        -0.3977135913       -4.7285077869        1.5989138902
 C        -2.6709762835       -5.7707628774        1.2379360180
 C        -3.8086450198       -3.2767094320       -6.5253327835
 C        -2.1585328332       -4.9818267253       -5.8923803045
 C        -1.2328319873        2.7918035166       -2.7404788837
 C        -2.6462751088        3.8069547400       -4.5901285821
 C         3.6658660245        2.6859221099       -7.0747855375
 C         3.0140356181        0.8714528178       -8.6519802573
 C         4.4446406108       -3.5881843161       -3.4522257608
 C         5.9909880265       -3.5985756081       -5.3231699651
 C         1.6291253202       -5.8320434869      -10.4475006234
 C         3.4586140911       -4.1209894944      -11.2693509500
 C        -2.5909977692        0.1169730035       -9.5601716940
 C        -2.7992197274       -1.9678729524      -11.1054034889
 C        -4.4582308588        1.3198898342      -16.2831831318
 C        -6.1704123478        2.9880392751      -15.4253613956
 C       -10.1406319999       -3.3267805543      -17.8104387763
 C        -9.8955798448       -2.3094673019      -20.0091427997
 C       -15.6215416228        0.5794600368      -20.8524092820
 C       -14.1795251287       -0.0804725274      -22.8290175640
 C       -10.2709470383        5.8951463752      -21.6659190228
 C        -8.3039079580        4.3990233732      -20.6727749898
 H       -12.4610152451        5.8260744356      -19.5169746384
 H       -11.2137827543        6.9083857564      -19.1593088207
 H       -11.8068267075        5.9874222989      -17.8943374783
 H       -11.8642070757        3.8847171701      -22.9152399574
 H       -12.4802050571        4.0801280280      -21.3229340305
 H       -11.3995607809        1.3224539293      -22.1912428134
 H       -12.9490664054        2.0399720321      -23.1334860315
 H       -14.8362430688       -1.4433099686      -18.7571295476
 H       -13.9670478568        0.0225131439      -18.4292831526
 H       -12.7656209569       -2.7026143812      -19.0049085031
 H       -12.8331059255       -2.0225043295      -17.3534100482
 H        -7.7542278421       -2.4959722587      -16.9791870667
 H        -8.7220368058       -1.5154417681      -15.9825164126
 H        -6.3564035891       -0.4995058516      -17.7368263761
 H        -6.1142761660       -1.2654097158      -16.0806034607
 H        -5.9928014088        2.0570137154      -12.6577988035
 H        -4.4656331508        2.5022537092      -13.4720685491
 H        -5.1261497345        0.2858857762      -11.5179084526
 H        -4.1726007779        1.7979208690      -11.0657155747
 H         0.1527611747       -0.5992097618      -12.9726083540
 H        -0.7925977156       -2.0840544815      -12.6891307139
 H         1.7687515897       -1.6442124624      -11.3096051891
 H         1.8138741293       -2.3311178424      -13.0296478695
 H         3.4261073506       -5.1093088792       -8.4542212610
 H         1.9546887371       -4.8647086720       -7.4696005766
 H         2.9949393501       -2.3580461514       -7.3513101100
 H         4.5476637300       -3.0201212998       -7.6803435681
 H         4.3019845872       -0.4609712867       -3.2648720005
 H         2.8064328225       -1.1508278419       -4.0161814151
 H         4.2963088188        1.1114116921       -5.2122058762
 H         2.7766546876        1.1199803365       -4.0954970200
 H         0.1136695896        3.8307937690       -8.4583014902
 H         1.4760531878        4.2831247071       -7.3923528070
 H        -1.2170940267        3.0466320526       -6.7827965069
 H        -0.5435912330        4.6789733460       -6.2574328577
 H        -0.4465506410        0.0621893465       -3.9742052317
 H        -0.9029382385        0.3379163588       -5.7340305975
 H        -3.0209693897       -1.1035222964       -5.0148718365
 H        -2.1375961412       -1.6258291657       -3.6555812970
 H        -1.5917389961       -4.7104456643       -3.2065451772
 H        -2.7132261290       -5.9520003757       -3.1612708792
 H        -3.6457867319       -5.2680036375       -1.0456506587
 H        -3.1939137578       -3.4192626232       -1.3708237326
 H         0.2740194487       -7.6874447090        1.7216427596
 H         1.2611286422       -7.5748255013        0.3435300478
 H        -0.8179700064       -9.0182386544       -0.7820490813
 H        -0.8199737833       -9.6079184070        0.9481859595
 H         1.9277901837       -9.9898424371       -2.8434387322
 H         0.2970864932       -9.2901440646       -3.3095730220
 H         0.8806155050      -10.5789940696       -4.1690358934
 H         2.4229580857      -12.2627975224        0.3670763370
 H         2.7244205174      -11.6867191236       -1.4148370796
 H         1.8543407209      -13.2235791399       -1.0243392086
 H        -0.3864788968      -13.2199506088       -0.0633680666
 H        -1.1993122994      -11.6801946943        0.3538928075
 H        -0.0110482719      -12.1551273826        1.3347855103
 H         0.0219935063       -5.2458532621        2.4668130678
 H        -0.6881081344       -3.8434255457        1.9816294017
 H         0.4429638903       -4.3906635401        0.9290506211
 H        -3.1969584483       -4.8226099189        1.4585057716
 H        -2.4132025933       -6.2340963067        2.2334476715
 H        -3.2880452186       -6.3383835383        0.5925398380
 H        -4.3929040317       -2.4109640457       -6.1505378930
 H        -4.6163145077       -3.9216851847       -6.6024400278
 H        -3.4397566144       -3.0764879287       -7.5465911177
 H        -2.7254140677       -5.8388247089       -5.5403405212
 H        -1.1077072818       -5.1162201635       -5.6312601978
 H        -2.1287625286       -5.0671173997       -7.0175907562
 H        -0.1855647134        3.0521365682       -2.5864471875
 H        -1.2714647945        1.8184337119       -2.2323249646
 H        -1.9106041438        3.3772128448       -2.1629540176
 H        -3.1769527122        3.5159717715       -5.5875003135
 H        -2.2417664792        4.7829593229       -4.6739730305
 H        -3.4123657663        3.9825893542       -3.8086421170
 H         3.5457970644        3.4493079780       -7.8696264158
 H         4.6103295491        2.1610446135       -7.1740428468
 H         3.5958743506        3.2237463014       -6.1401970466
 H         3.5907612263        1.5914694397       -9.2921687397
 H         2.2481229042        0.2862695047       -9.1482985886
 H         3.8488050286        0.1341546211       -8.3770547200
 H         3.4625284401       -3.2963490824       -3.2546965884
 H         4.9819936961       -3.0634488979       -2.6966789298
 H         4.6935834891       -4.6386808976       -3.2950959157
 H         6.7759990011       -3.2628193350       -4.6458804654
 H         6.2587553621       -3.5587450753       -6.4663237945
 H         5.8630078148       -4.6287201260       -5.1185575509
 H         2.2038510948       -6.4080413623       -9.7535478734
 H         1.6879089599       -6.3197948703      -11.4786430926
 H         0.5975471499       -5.8838282108      -10.0820312416
 H         3.8861908371       -5.0993883291      -11.6097967224
 H         4.1479138781       -3.6971454809      -10.5783502228
 H         3.5493668560       -3.4170973409      -12.1015353924
 H        -3.6889717093        0.2708861491       -9.4907321381
 H        -2.0682125905        1.0426830340       -9.4140933452
 H        -2.2500803793       -0.5545057584       -8.6998126135
 H        -2.3718156359       -2.4273777093      -10.1703882317
 H        -2.5044218510       -2.5328540603      -11.9394518578
 H        -3.8692760231       -1.9006474816      -10.9916947224
 H        -3.6276489086        0.7873187287      -15.7312227367
 H        -4.1951540796        2.2911224256      -16.6781973099
 H        -4.5403238087        0.7212823058      -17.1630238213
 H        -5.2971419503        3.6780731539      -15.3140836010
 H        -6.8834283775        3.1707146645      -14.6106591367
 H        -6.5228495721        3.3331972998      -16.4154299634
 H        -9.3937311396       -4.0234641485      -18.2365943793
 H       -11.0323452988       -3.8257458662      -17.8937377443
 H       -10.0397622208       -3.0945246644      -16.6922043436
 H        -8.9909748737       -2.9809632999      -20.1941101400
 H        -9.5971872278       -1.4569943789      -20.4592810221
 H       -10.7574222775       -2.6275820528      -20.5812617301
 H       -16.2955817457        1.0479520416      -21.5107694939
 H       -15.6702745853        1.2976264251      -19.9776413494
 H       -16.1975738252       -0.2569232356      -20.4506553042
 H       -14.4617673791        0.6634032021      -23.5480479150
 H       -14.7463521811       -1.0413454154      -22.9342345402
 H       -13.2193617250       -0.4868616743      -22.9750036875
 H        -9.8038591599        5.5931014810      -22.6297350346
 H        -9.7064404382        6.7951195659      -21.3894447001
 H       -11.3451387255        6.0923566275      -21.7803976207
 H        -7.8494850171        5.3278271367      -20.2640302600
 H        -7.8725501165        4.1378501292      -21.7039757661
 H        -8.2032560688        3.5691577253      -20.0357942829
 Na       -9.5986819362        1.7180501695      -18.6265473871
 Na        0.1998590431       -1.0689227378       -7.7509141868
