232

 C       -11.4089963868        5.9539310489      -18.7884750520
 C       -10.4839219229        4.7809664750      -19.1389167289
 O       -10.3274350498        3.9470938502      -18.2757345158
 C        -9.8216507391        4.6796180406      -20.6771356885
 C       -10.4772605551        3.3967708748      -21.0855282659
 O       -10.1549243784        2.3043000332      -20.7153319768
 C       -11.8089635021        3.5412974865      -21.8438332081
 C       -12.3974303156        2.1586371769      -22.1810790631
 C       -13.3337838066        1.6691449491      -21.0060868673
 O       -13.4766489156        2.2394000763      -19.9778224562
 C       -14.1495000056        0.3652575797      -21.2100244237
 C       -13.5198737051       -0.8076733798      -20.3782758893
 O       -12.7697577224       -1.5613120825      -20.9484300678
 C       -13.8431719083       -1.0481248403      -18.8877806768
 C       -12.7090281150       -1.8979314648      -18.2612087338
 C       -11.3516750611       -1.1230161966      -18.4021732510
 O       -11.3052532416        0.0579954455      -18.6144324887
 C        -9.9935321442       -2.0184089360      -18.6678026500
 C        -8.7797314607       -1.1535543971      -18.1888502537
 O        -8.4269301283       -0.2833228867      -18.9573339086
 C        -8.0554350457       -1.4675751711      -16.8939341419
 C        -6.6837227645       -0.6493806300      -16.7396586195
 C        -6.9591101399        0.8006359522      -16.3895268082
 O        -8.0382152384        1.3476480159      -16.5775504752
 C        -5.8253618052        1.4828667373      -15.5307136496
 C        -5.5256444634        0.8380256312      -14.0581697898
 O        -5.5492021104       -0.3911869190      -13.9776242005
 C        -5.1035620215        1.8259901997      -12.9233012277
 C        -4.3322894704        1.1075479913      -11.6920841764
 C        -2.8688282148        0.5850121399      -11.9536457970
 O        -2.1643032515        0.8603364056      -12.9059364160
 C        -2.3165943054       -0.4508479415      -10.8490159858
 C        -0.7077231379       -0.6603801350      -11.1618633169
 O         0.0472498112       -0.4004721921      -10.2462010031
 C        -0.1601805855       -1.3656879152      -12.4309171602
 C         1.1617231607       -2.1272280852      -12.0158903317
 C         0.9388745124       -3.6449528980      -11.6898629675
 O        -0.0653403471       -4.2505374793      -11.9935457716
 C         2.0991294529       -4.3409531943      -10.8226228296
 C         1.9648812426       -3.7340746522       -9.2823270200
 O         1.2112612031       -2.7967593816       -9.1412552513
 C         2.8428389850       -4.2805718937       -8.1403066600
 C         3.5092922125       -3.2582811701       -7.3162755573
 C         3.5686829104       -3.7026620731       -5.8104735689
 O         2.7387394134       -4.5370628866       -5.3956141810
 C         4.6972768569       -3.0476421453       -4.8934160313
 C         4.7076179173       -1.4695169857       -5.1186878200
 O         5.2539239908       -0.9371814756       -6.0682998393
 C         3.8512524858       -0.6210035344       -4.1423595946
 C         3.3126577658        0.7495914507       -4.7758310416
 C         2.5865348299        0.4230243418       -6.2125535309
 O         2.0132874272       -0.6396433929       -6.3143230903
 C         2.5505484003        1.4448528675       -7.2799708191
 C         1.0858852910        1.9930408526       -7.4770696784
 O         0.2410007010        1.2136347445       -7.8223059823
 C         0.7198547307        3.4505937205       -7.3660994527
 C        -0.5741650782        3.6157972115       -6.5807164838
 C        -0.3393688868        2.7446939362       -5.2636684312
 O         0.6922194482        2.2133924359       -4.9435926982
 C        -1.5184852091        2.6887299983       -4.3533848575
 C        -2.2070246297        1.2301059426       -4.6015349677
 O        -3.3979910830        1.2162823280       -4.5094542426
 C        -1.2557117233       -0.0386917865       -4.9274134094
 C        -2.0819707390       -1.3633653531       -4.6661904785
 C        -1.7827926911       -2.5571826383       -5.6431510978
 O        -0.8800071156       -2.6340808462       -6.4649067685
 C        -2.7896249090       -3.6851481394       -5.4346248736
 C        -3.3654879328       -3.8064375793       -3.9754917591
 O        -4.5073830592       -3.3992317969       -3.7726928924
 C        -2.6776050942       -4.7279050743       -2.9836327262
 C        -2.8750784143       -4.4436249362       -1.4752872453
 C        -1.5160913894       -4.5502124535       -0.6806536756
 O        -0.6265573517       -3.9104880429       -1.1357020122
 C        -1.3145317853       -5.4184760108        0.5832333132
 C        -0.6869349888       -6.7590042690        0.0125114639
 O        -0.9338772237       -7.0044394927       -1.1608996263
 C         0.1430594704       -7.7555030327        0.7643647616
 C        -0.1664051846       -9.2759026795        0.3051374803
 C         1.0976944650      -10.1259859757       -0.0375506045
 O         2.2094817534       -9.6038051707        0.1219521669
 C         0.7512844950      -11.4421846911       -0.7127078013
 C         0.1490502082      -11.1119893749       -2.1386285585
 O        -0.9287242859      -11.5846771959       -2.4627601380
 C         0.8490946159      -10.2218825105       -3.0525995909
 C         2.0815520214      -12.3239645734       -0.6183897476
 C        -0.3098860074      -12.2161180864        0.0284222567
 C        -0.3685566855       -4.7835237108        1.5959304630
 C        -2.7422918876       -5.7860269032        1.2824605222
 C        -3.8655076470       -3.2715340009       -6.4737284886
 C        -2.1590816689       -5.0500045877       -5.8730644478
 C        -1.1927339720        2.8772151503       -2.8584212116
 C        -2.5288827645        3.8037098636       -4.6737227067
 C         3.4808063907        2.7614722697       -7.1027404595
 C         2.8427332559        0.8373706654       -8.6887424595
 C         4.4767530267       -3.3716020593       -3.4668558585
 C         6.1673182656       -3.5300508391       -5.4734094462
 C         1.6022537592       -5.7908169519      -10.7095842292
 C         3.5854073457       -4.2717383712      -11.2961878505
 C        -2.6492540393        0.0775517768       -9.4637072404
 C        -2.8194911266       -1.8887128722      -10.9738137430
 C        -4.4814652223        1.2476604267      -16.3095106298
 C        -6.1339525272        3.0661980835      -15.3731555627
 C       -10.2300659645       -3.3922734521      -17.8532832928
 C        -9.8414194098       -2.2969559071      -20.1831538721
 C       -15.6589859260        0.6808967554      -20.8755865586
 C       -14.2099516914       -0.1355787250      -22.6582657086
 C       -10.2365657144        5.8306568277      -21.6144889420
 C        -8.3032681525        4.5456966194      -20.7567852038
 H       -12.1589047417        6.0356447950      -19.5027699956
 H       -10.8885975570        6.9170730583      -18.7765777044
 H       -11.8051260062        5.8411439657      -17.8013414380
 H       -11.9005580408        4.0505316651      -22.8619122429
 H       -12.3246121975        4.2341054671      -21.1725122688
 H       -11.4737533679        1.5346599938      -22.1918278494
 H       -13.0670785925        2.1324720410      -23.0996938060
 H       -14.7887898460       -1.6042738172      -18.7231721450
 H       -13.9270301312       -0.1357461528      -18.3232559803
 H       -12.7056013926       -2.8692847984      -18.7798160613
 H       -12.9094247801       -2.0347568344      -17.2177342978
 H        -7.9387260625       -2.5234596909      -16.8812345612
 H        -8.7247374075       -1.3056605549      -15.9952165938
 H        -6.0764021698       -0.7328795885      -17.6831012201
 H        -6.1579396589       -1.0698990749      -15.9161165714
 H        -6.0001582647        2.3727837255      -12.6411764523
 H        -4.3472451021        2.4533027037      -13.4739369450
 H        -4.9799168551        0.2823415133      -11.4981065112
 H        -4.2640264609        1.7983106996      -10.8138993870
 H         0.0911925553       -0.7563687745      -13.2357118775
 H        -0.9241606808       -2.1580052911      -12.7281125346
 H         1.5865605509       -1.6292982021      -11.1084730410
 H         1.8772993857       -2.1255252606      -12.8331695253
 H         3.6342849134       -5.0569827597       -8.4504481349
 H         2.1411497027       -4.9093762507       -7.5409127310
 H         2.8037081372       -2.2410237597       -7.3034224386
 H         4.5140109441       -2.8303614139       -7.6858615421
 H         4.4068069308       -0.3757470549       -3.2429472543
 H         3.0008818154       -1.2011425698       -3.8732812835
 H         4.1827889867        1.2912080739       -4.9968278146
 H         2.6017851554        1.1749853515       -4.0589317524
 H         0.5763173276        3.7941232508       -8.4109285807
 H         1.4579420777        4.0646867643       -6.9304711150
 H        -1.4764228810        3.2389229913       -7.0650303680
 H        -0.6346508136        4.6966312759       -6.3078795025
 H        -0.4066410367       -0.0376202042       -4.1853219361
 H        -0.8884224916        0.0803162113       -5.9503238224
 H        -3.1257855564       -1.1862707140       -4.7896700726
 H        -1.9733020108       -1.7164852840       -3.6604619175
 H        -1.6076508961       -4.8937596268       -3.2569379111
 H        -3.0164035108       -5.7770985073       -3.0951026333
 H        -3.4600431870       -5.3059506438       -1.1715991515
 H        -3.2039596995       -3.4520044990       -1.2348497036
 H        -0.0639290921       -7.6268802320        1.8922871809
 H         1.2948973720       -7.6066300675        0.7584105082
 H        -0.8329468477       -9.2289787669       -0.5609994783
 H        -0.6750971193       -9.6945035068        1.1531906023
 H         1.9191460618      -10.2792571905       -2.9798970351
 H         0.5094171155       -9.2103838819       -3.1136692563
 H         0.5669657523      -10.5850413604       -4.0607990824
 H         2.4042602589      -12.1470567305        0.4159479483
 H         2.7969162514      -12.0957616314       -1.3823466855
 H         1.8333034749      -13.3993275702       -0.6321503963
 H        -0.5765331344      -13.2197980674       -0.3506370517
 H        -1.1452570156      -11.5851931675        0.0539739888
 H        -0.1736535057      -12.2706725184        1.1139356947
 H        -0.2667620679       -5.4660937725        2.4040690091
 H        -0.6715623935       -3.8456662665        2.0600365617
 H         0.6112650015       -4.4992071106        1.2682197605
 H        -3.2119492099       -4.9056307268        1.5514532485
 H        -2.6037840671       -6.4275335834        2.1455164492
 H        -3.3821250826       -6.2349102110        0.5523023934
 H        -4.6135456172       -2.6949099727       -5.9539638721
 H        -4.5229569231       -4.0121373969       -6.9363536403
 H        -3.4750679752       -2.6590444807       -7.2986293265
 H        -2.7320732962       -5.8606039370       -5.3572516120
 H        -1.0564342044       -5.2257144546       -5.7632406349
 H        -2.3634815656       -5.2832922052       -6.9540681498
 H        -0.4236112805        3.6371600794       -2.8047312260
 H        -0.7664646488        2.0440822568       -2.3510461832
 H        -2.0881740198        3.0933448888       -2.2759953755
 H        -2.9122553782        3.6489580678       -5.6649698343
 H        -2.0153328405        4.8284216157       -4.6225678142
 H        -3.3868691424        3.9397842728       -4.0209846129
 H         3.2402801331        3.3823161460       -7.8485074598
 H         4.4747959513        2.3693453621       -7.3199669562
 H         3.5024958660        3.3347128912       -6.1562805347
 H         3.0619977101        1.6092558347       -9.4426518820
 H         2.1531652625        0.0513325368       -8.9605596263
 H         3.8594686988        0.3714314892       -8.5766303730
 H         3.7000721595       -2.7070792047       -3.0850306833
 H         5.3145752167       -3.1896658126       -2.8130276694
 H         4.2849501508       -4.4407326222       -3.3120928826
 H         6.9711781877       -3.2252355745       -4.7303152542
 H         6.3105853894       -3.1995895420       -6.4473277815
 H         6.1746561714       -4.6363520890       -5.5773193656
 H         2.2198570922       -6.5296305400      -10.0630122760
 H         1.6913112239       -6.1105749739      -11.7038250152
 H         0.5666297688       -5.8973569951      -10.4077632382
 H         3.8071738420       -5.0975347993      -11.8358364540
 H         4.3505802808       -4.1134325724      -10.5269996031
 H         3.7446501206       -3.4848291234      -11.9558613780
 H        -3.7459531003        0.1010429265       -9.2507294432
 H        -2.2040742618        1.0550942685       -9.3118864150
 H        -2.1443851276       -0.5321984320       -8.7617629600
 H        -2.2661166976       -2.4264337059      -10.1756481167
 H        -2.5300695635       -2.3173304448      -11.9725092041
 H        -3.9395033386       -1.9589208861      -10.8161153211
 H        -3.8214204388        0.6117415171      -15.7192801302
 H        -4.0023529810        2.1379565715      -16.6524371263
 H        -4.6010018683        0.7336201832      -17.2782222975
 H        -5.1973353940        3.5267383619      -15.0855454822
 H        -6.8590033833        3.2585446967      -14.6829357793
 H        -6.3196604225        3.5618191056      -16.3216621132
 H        -9.5508383781       -4.1482396719      -18.2886110222
 H       -11.2546817643       -3.8784069872      -18.0146064222
 H       -10.1699292455       -3.2923480708      -16.8533300216
 H        -8.9448069700       -2.8619287091      -20.4069110828
 H        -9.7126518812       -1.3720379873      -20.7545940334
 H       -10.7520192252       -2.7947705241      -20.6577385071
 H       -16.3034775156        0.9481193047      -21.6866601393
 H       -15.9071064744        1.4690870258      -20.1496953771
 H       -16.1564316485       -0.1532338570      -20.3904645242
 H       -14.6502094020        0.6375221740      -23.2110180150
 H       -14.7975974842       -1.0570529360      -22.7272349367
 H       -13.2614329706       -0.4941952595      -23.0388030316
 H       -10.0533389719        5.4926677558      -22.6009268578
 H        -9.5030634784        6.6486894705      -21.5004370120
 H       -11.3281701520        6.2060712464      -21.4826667719
 H        -7.8446997617        5.1293411029      -19.9497030566
 H        -7.9886970879        5.0136034593      -21.6924252295
 H        -8.0576151112        3.4654039025      -20.8042224217
 Na       -9.4692119454        1.7178608990      -18.6490097642
 Na        0.1317881542       -1.0060173626       -7.8894420212
