232

 C       -11.1592372180        6.0225229523      -18.7484521510
 C       -10.4069166083        4.7759261509      -19.0897209393
 O       -10.1847640389        3.8420541533      -18.3066478860
 C        -9.8393493680        4.7137561173      -20.5555384481
 C       -10.6307140634        3.3543493170      -20.9665389138
 O       -10.2289683268        2.2226847527      -20.6712286916
 C       -11.8542442805        3.5032876887      -21.9033421936
 C       -12.6242650135        2.1937264873      -22.1510531929
 C       -13.3792322832        1.6717104029      -20.9205857963
 O       -13.4175943637        2.1704904192      -19.8373752376
 C       -14.2400950922        0.2619835663      -21.2036858306
 C       -13.5172401504       -0.8960528911      -20.3290586485
 O       -12.6603879700       -1.5924890161      -20.9059218982
 C       -13.7917964748       -1.0530322637      -18.8436035303
 C       -12.6430074791       -1.8458427471      -18.1736305332
 C       -11.2772669963       -1.1640946630      -18.5569499230
 O       -11.3123613703        0.0766892413      -18.5770289122
 C       -10.0350903980       -2.0274840399      -18.7599795069
 C        -8.8240640605       -1.2141395926      -18.2323679397
 O        -8.5062741093       -0.2377581328      -18.8940910041
 C        -8.0659979056       -1.5343294668      -16.9255981002
 C        -6.7411181710       -0.6684294759      -16.7702177519
 C        -6.9438036004        0.7353534008      -16.2513695946
 O        -7.9617587678        1.3966807095      -16.5027941613
 C        -5.7303836667        1.5067685016      -15.4849988122
 C        -5.4606564138        0.9129757132      -14.0650826371
 O        -5.4819995109       -0.2787749964      -13.9687296252
 C        -4.9512937533        1.7840678357      -12.9003801345
 C        -4.3470158378        1.0333195494      -11.6882832845
 C        -2.9156876561        0.4744301304      -11.9488205856
 O        -2.3270493613        0.8411310441      -12.9358318848
 C        -2.2836643251       -0.4883104584      -10.8374627974
 C        -0.7709161475       -0.6460888881      -11.1094900299
 O         0.0766750995       -0.3031694977      -10.2845162414
 C        -0.2765422508       -1.3201401497      -12.4117170311
 C         1.1152853133       -2.0449708365      -12.0515761640
 C         0.9584872526       -3.5730412333      -11.6923325796
 O        -0.0074467592       -4.1845909945      -12.1231697869
 C         1.9894099485       -4.4203388477      -10.8268836184
 C         1.9676308668       -3.7537658489       -9.3535546381
 O         1.2091145701       -2.8266003907       -9.2078098487
 C         2.8496656108       -4.3155396201       -8.2546356984
 C         3.4712309148       -3.2115795012       -7.2805590234
 C         3.6415152673       -3.6079743374       -5.8055859762
 O         2.8708973802       -4.3296164441       -5.2830828061
 C         4.7454341980       -2.9505534751       -4.8843581767
 C         4.6248781202       -1.3814613667       -5.1118322229
 O         5.0901272799       -0.8597371328       -6.1164515519
 C         3.8186330022       -0.5695854310       -4.1301435493
 C         3.3315736123        0.7439445783       -4.8692853712
 C         2.6760755118        0.3817415662       -6.2261073809
 O         2.0410948113       -0.6512278456       -6.2990791499
 C         2.6129583938        1.4898866786       -7.3962405432
 C         1.0924417320        1.9745385820       -7.5250019766
 O         0.1720767958        1.2239211443       -7.8232832344
 C         0.8459132592        3.4602603229       -7.2802036273
 C        -0.6243387568        3.5627768899       -6.6778661841
 C        -0.4301833753        2.8776442286       -5.3114154783
 O         0.6943477600        2.3012989988       -5.1607411623
 C        -1.5692871840        2.7064798149       -4.4040441882
 C        -2.2233742138        1.2238175244       -4.6125971226
 O        -3.3996033126        1.1274192160       -4.4102202863
 C        -1.3893704963        0.0408510430       -5.0295156289
 C        -2.0810440783       -1.3068996203       -4.6632071593
 C        -1.8239079734       -2.4930889940       -5.6218239995
 O        -1.0820117771       -2.3402660948       -6.6210386477
 C        -2.8507520861       -3.7060924612       -5.4763374536
 C        -3.4088743519       -3.9196901549       -4.0154763772
 O        -4.5109031297       -3.4714820597       -3.8219488514
 C        -2.6149649460       -4.6795684031       -2.9754030637
 C        -2.8810403702       -4.4360417743       -1.5089330444
 C        -1.4638356424       -4.4765803374       -0.7013494807
 O        -0.5076108327       -3.8556047776       -1.1605685468
 C        -1.2880128375       -5.4646152051        0.5225727038
 C        -0.7522955019       -6.8208325373        0.0012296875
 O        -0.9548568463       -7.1366925316       -1.1836495313
 C        -0.0067425523       -7.7553409137        1.0251418525
 C        -0.1664293149       -9.2145192421        0.5592995631
 C         1.0403503208      -10.0311763919        0.0141019697
 O         2.1667218438       -9.6432675681        0.0464107079
 C         0.7302941977      -11.4548653155       -0.6140629203
 C         0.2730052438      -11.2167191792       -2.1580444418
 O        -0.8409474342      -11.6223407738       -2.4144334349
 C         1.0358653925      -10.1826772246       -3.0494497500
 C         2.1008810247      -12.4194699899       -0.7551517501
 C        -0.4387834145      -12.2993579416       -0.0503052921
 C        -0.3986460335       -4.8468115408        1.5553112908
 C        -2.6521581596       -5.8370943792        1.3316645275
 C        -4.0513585485       -3.3379303469       -6.3710413331
 C        -2.1219159774       -5.1603415990       -5.9442770163
 C        -1.0577127654        2.8378091913       -2.8985046322
 C        -2.6763785544        3.7775097590       -4.7171437802
 C         3.4788969660        2.7213161462       -7.0900964767
 C         2.8385556393        0.7490158935       -8.6899660954
 C         4.6020104813       -3.3209083785       -3.4423240769
 C         6.1343081876       -3.4539131617       -5.5100244799
 C         1.6583030241       -5.9174222031      -10.8678844577
 C         3.4604168851       -4.3428358328      -11.3262944721
 C        -2.5466985491        0.0547785241       -9.4370546145
 C        -3.0649413131       -1.8453958166      -10.9303429314
 C        -4.4479237878        1.3098926798      -16.3146432927
 C        -6.0879355792        3.0099471036      -15.4049750248
 C       -10.1162844078       -3.4069576966      -17.9099192458
 C        -9.9002919822       -2.3092128408      -20.2170523514
 C       -15.6843476495        0.7175969505      -20.7167623394
 C       -14.2036157586       -0.2206646942      -22.6946649471
 C       -10.2409662823        5.9364511837      -21.4105953572
 C        -8.2576867138        4.6261658433      -20.5758076804
 H       -11.8660087123        6.1586140318      -19.5710685780
 H       -10.5948343575        6.9402290045      -18.5925756703
 H       -11.7525768492        5.8804226062      -17.7879339383
 H       -11.6483296065        3.8542554301      -22.8851706937
 H       -12.4073755295        4.3762269515      -21.4054358639
 H       -11.8861625341        1.4908676446      -22.4002834476
 H       -13.4683399439        2.2715251359      -22.8444685305
 H       -14.7043165312       -1.6190238957      -18.7174159881
 H       -13.9268772527       -0.0607472424      -18.3367643832
 H       -12.7597587024       -2.9090625713      -18.4809302676
 H       -12.7514650811       -1.7698445120      -17.0522637437
 H        -8.0180927485       -2.6298595832      -16.6482742088
 H        -8.7572087348       -1.1610419637      -16.2159373243
 H        -6.2296473470       -0.6023649964      -17.6666633675
 H        -6.1085209395       -1.1673004643      -15.9972262922
 H        -5.8808065113        2.3096620971      -12.5294003396
 H        -4.1591907445        2.4692945446      -13.2342330522
 H        -5.0928442341        0.3522829402      -11.3474034118
 H        -4.1944648291        1.8673542850      -11.0026074177
 H         0.1475686117       -0.5458793402      -13.0740009059
 H        -1.0026890663       -1.9769098251      -12.9998988510
 H         1.5789263348       -1.5121384256      -11.2120759626
 H         1.7589321729       -1.9508184703      -12.9533843429
 H         3.7362056660       -4.8994260376       -8.5747865238
 H         2.2006772826       -5.0389268224       -7.9110576034
 H         2.8821021835       -2.2397592467       -7.3580173723
 H         4.4287926096       -2.8975471635       -7.6660513633
 H         4.5428473428       -0.2008805458       -3.4391671062
 H         3.0448963087       -1.0955280702       -3.6249683745
 H         4.2247364374        1.3484541604       -5.0506483921
 H         2.5383354215        1.1736534460       -4.2815390316
 H         0.8888872367        3.9064230847       -8.2620210382
 H         1.5964374519        4.0092681847       -6.6107676107
 H        -1.3356627026        2.9683591664       -7.2263521174
 H        -0.9730225209        4.5854432544       -6.5184465671
 H        -0.4365925797        0.0075646030       -4.5501404524
 H        -1.2906223544        0.1575863171       -6.1238617463
 H        -3.2047303174       -1.2552770942       -4.6060265148
 H        -1.7533526626       -1.6141898908       -3.6651187308
 H        -1.5311305344       -4.4750393745       -3.1431848646
 H        -2.5882195533       -5.7364021023       -3.1544075174
 H        -3.5161341862       -5.1738454905       -1.1213053121
 H        -3.1897763026       -3.3988110451       -1.3935405478
 H        -0.1787476851       -7.5105030335        2.0888855470
 H         1.1149435565       -7.5963225894        0.9033048059
 H        -0.8340134040       -9.1323665633       -0.2572754467
 H        -0.6467470186       -9.8091438845        1.3685793794
 H         2.0823357567      -10.3156215087       -3.0789093477
 H         0.7903822927       -9.2114325240       -2.6136989419
 H         0.7078468654      -10.0311797458       -4.0704925880
 H         2.6223634313      -12.3491095245        0.1774240789
 H         2.6416272526      -12.1141803226       -1.6086479985
 H         1.8453684594      -13.4530156032       -0.8448755997
 H        -0.6251348327      -13.1900306916       -0.5880775036
 H        -1.3340831528      -11.6568928107        0.0323306053
 H        -0.3517714078      -12.5758483184        0.9999166361
 H        -0.3402155334       -5.4554128553        2.4393777776
 H        -0.8479072299       -3.8544838879        1.9346905686
 H         0.5750373795       -4.5549065510        1.3509717488
 H        -3.1040259436       -4.9121894483        1.5863586619
 H        -2.4887025379       -6.5036138276        2.1042580299
 H        -3.3718113900       -6.2941185780        0.6401299652
 H        -4.9050348164       -2.9250867671       -5.8553551769
 H        -4.5499641804       -4.1817386708       -6.9355086132
 H        -3.7680577380       -2.6747890569       -7.1645868879
 H        -2.7167807017       -6.0145074330       -5.5155889543
 H        -1.0738326228       -5.2301075432       -5.5367289459
 H        -2.0476353736       -5.4385395164       -6.9912189977
 H        -0.8409599035        3.8832468655       -2.7204870465
 H        -0.0903337268        2.3519787269       -2.7820863454
 H        -1.6774694173        2.3621013061       -2.1349809943
 H        -2.9213397156        3.7998263428       -5.7293184282
 H        -2.3139403217        4.7844138289       -4.3792000572
 H        -3.6141410079        3.6398573293       -4.1968381296
 H         3.5444275068        3.5498634229       -7.8370668575
 H         4.4372294682        2.2885923352       -6.9490411581
 H         3.2364515180        3.1096132183       -6.1228705526
 H         2.4806642135        1.2420757968       -9.5633276899
 H         2.3943240052       -0.2570487695       -8.5115242430
 H         3.8549576178        0.6241258500       -8.8869420172
 H         3.9685387442       -2.6718681111       -2.7782845002
 H         5.5729986324       -3.4077621874       -2.9195708082
 H         4.3412501089       -4.3611743169       -3.4519486336
 H         6.8617552224       -3.2462063371       -4.7485586033
 H         6.3112482072       -2.9354069581       -6.4023753617
 H         6.1795422852       -4.5361775885       -5.8634467017
 H         2.4402030028       -6.4778375272      -10.3422505481
 H         1.7297822528       -6.2044402448      -11.8939444704
 H         0.6871773018       -6.2448462195      -10.4794544943
 H         3.5497661728       -4.8665610074      -12.2681757295
 H         4.2371715704       -4.6161813690      -10.6544974969
 H         3.6987353976       -3.3712510102      -11.6724471618
 H        -3.5828512750       -0.0322258891       -9.2268903000
 H        -2.1997695133        1.0723972853       -9.2025363710
 H        -1.9585485767       -0.5495853821       -8.8094436293
 H        -2.5339329246       -2.6220590068      -10.3801656625
 H        -3.1649069505       -2.0778430090      -12.0507622646
 H        -4.0972227180       -1.6712835404      -10.5142348370
 H        -3.9918564935        0.5305311285      -15.7960356372
 H        -3.7570310011        2.1387547070      -16.4341937473
 H        -4.5782131096        1.0410109491      -17.4080173404
 H        -5.2790921647        3.4563600932      -14.9179931165
 H        -7.0297677396        3.0982839629      -14.8301516965
 H        -6.1958487623        3.4510254715      -16.3576741611
 H        -9.1933391777       -3.8790690902      -18.1344517744
 H       -10.8757718077       -4.1048798274      -18.3283838508
 H       -10.3452142311       -3.3519190037      -16.8463252132
 H        -8.9864542069       -2.7657450013      -20.4870070523
 H        -9.9543686490       -1.3274777588      -20.8938966148
 H       -10.7139872091       -2.9259484801      -20.5756228936
 H       -16.3359462595        1.2109589261      -21.4750831354
 H       -15.7682665490        1.3681941628      -19.9181449816
 H       -16.2969953105       -0.0822936815      -20.3298267878
 H       -14.6835193012        0.6048322406      -23.2363484337
 H       -14.6690053795       -1.1233371842      -22.8825462560
 H       -13.1591037377       -0.4292992725      -22.9983882243
 H       -10.0591334765        5.7625498086      -22.4783116071
 H        -9.6062042810        6.8034331678      -21.1853195894
 H       -11.2680863468        6.1470460927      -21.2129009541
 H        -7.7552035301        4.9403372353      -19.6826319184
 H        -8.0160939436        5.3473923599      -21.2855719604
 H        -7.9637105572        3.6373138503      -21.0180192365
 Na       -9.3498110064        1.6996108142      -18.5892629866
 Na        0.1735756801       -1.0949784305       -7.9965936683
