232

 C       -10.9532397104        6.0498452330      -18.4953365997
 C       -10.3098077900        4.8046734310      -19.0090336878
 O       -10.0452211707        3.8999478150      -18.2586451490
 C        -9.9166381142        4.6978818052      -20.5558980053
 C       -10.6694429218        3.3434423203      -21.0793597176
 O       -10.2558052724        2.2754906783      -20.6529707518
 C       -11.9056278451        3.4603134128      -21.9349231870
 C       -12.7889490549        2.2007462018      -22.1521691582
 C       -13.4256585090        1.5356813637      -20.8976491844
 O       -13.3314471977        2.0735579370      -19.7832624827
 C       -14.2642687236        0.2592049264      -21.1577331989
 C       -13.5498642803       -0.8657008430      -20.3179596539
 O       -12.6757266935       -1.5253835742      -20.8409411950
 C       -13.8293938253       -0.9956666448      -18.8536143027
 C       -12.6711260168       -1.7435246650      -18.1484172119
 C       -11.2788652106       -1.1192648297      -18.4629921423
 O       -11.1439657191        0.0628940803      -18.5569945532
 C        -9.9859435167       -2.1021912180      -18.7756649754
 C        -8.8057288269       -1.1835104811      -18.2601429780
 O        -8.4152814573       -0.2634353529      -18.9467224410
 C        -8.0857144828       -1.4468342630      -16.8772200243
 C        -6.8410444835       -0.6824276745      -16.6929166134
 C        -6.9174605287        0.7732475440      -16.1370812882
 O        -7.8862065346        1.4292591745      -16.4263308451
 C        -5.6516111556        1.5055315967      -15.4596428651
 C        -5.3227370824        0.8316870922      -14.1038285269
 O        -5.4588458593       -0.3561599175      -13.8631390552
 C        -4.8214201894        1.8310713963      -12.8916743419
 C        -4.4071266321        0.9967106734      -11.6967176317
 C        -3.0071938549        0.4787089575      -11.9578205217
 O        -2.3998713510        0.7400558870      -12.9762264534
 C        -2.3632183493       -0.5534032178      -10.8955873263
 C        -0.7863887978       -0.7358576083      -11.0426645521
 O        -0.0493509527       -0.1645471834      -10.2611227821
 C        -0.2195827056       -1.3740016650      -12.2764200697
 C         1.1661844851       -2.0750434349      -12.1700798534
 C         0.8765659080       -3.5461521325      -11.7667808902
 O        -0.0366432850       -4.1313246588      -12.2889173710
 C         1.9688559510       -4.4011555676      -10.8746414998
 C         1.9750836242       -3.8116095573       -9.3949132742
 O         1.2105043591       -2.8561753921       -9.2207584798
 C         2.9039080260       -4.3734393288       -8.2513313829
 C         3.4950213187       -3.1521899176       -7.3759259081
 C         3.5714323010       -3.5337431333       -5.8164642946
 O         2.8779903659       -4.2665479328       -5.1737050728
 C         4.8359740449       -2.8292404260       -4.9275145651
 C         4.6012857209       -1.2770827149       -5.1458311879
 O         4.9630154355       -0.8272805777       -6.2305327881
 C         3.7781523581       -0.4548312563       -4.1558448791
 C         3.3921393633        0.8093931405       -4.9326942119
 C         2.5103452320        0.4630867149       -6.1021898381
 O         1.9995418123       -0.6529118410       -6.4102921595
 C         2.6244807286        1.4478814623       -7.3657590185
 C         1.1145626484        2.0699145689       -7.5341092276
 O         0.1804396653        1.2704234753       -7.7559661225
 C         0.8404448360        3.5963971880       -7.5276779730
 C        -0.5717901359        3.5937361313       -6.8121337677
 C        -0.4615488024        2.8800502938       -5.4502861637
 O         0.6092101292        2.3390632694       -5.1582025894
 C        -1.6888116537        2.7450871410       -4.4067806137
 C        -2.3283515736        1.2723339071       -4.5100784686
 O        -3.5064581128        1.0354997436       -4.2984967722
 C        -1.4559641641        0.0696153505       -5.0967440026
 C        -2.0607887981       -1.2357971353       -4.6592179961
 C        -2.0125018202       -2.3965924474       -5.6772393167
 O        -1.3647565086       -2.2495511210       -6.6840191872
 C        -2.9180602848       -3.7081197771       -5.5262022458
 C        -3.4446817014       -4.0103339847       -4.0530125798
 O        -4.4787972829       -3.5439179372       -3.6644449782
 C        -2.3932354762       -4.5889418129       -3.0459686768
 C        -2.7558885674       -4.3955536353       -1.5355300158
 C        -1.4926968083       -4.5147983740       -0.7253369964
 O        -0.5125507385       -3.8616582841       -1.0551067541
 C        -1.3539150033       -5.4540333356        0.5330054044
 C        -0.7431710153       -6.9042519078       -0.0251733075
 O        -0.9562600431       -7.3026205050       -1.1202674546
 C        -0.0935989750       -7.8609600286        0.9646777665
 C        -0.2222205293       -9.3726599953        0.7078391629
 C         1.0016158975      -10.1138190124        0.0836344568
 O         2.0909610086       -9.6060354795        0.0080382816
 C         0.6762979826      -11.4564665708       -0.6369349909
 C         0.2229637933      -11.1042329876       -2.0501356157
 O        -0.6799824615      -11.6204586569       -2.6358523395
 C         1.1761067876      -10.2316094518       -2.8877452673
 C         1.9532790588      -12.3085180466       -0.8192860472
 C        -0.3723415231      -12.2988725856        0.0417671452
 C        -0.3506327038       -4.7875733204        1.5472573213
 C        -2.5868922287       -5.8208127503        1.2123048582
 C        -4.0838714522       -3.5432147874       -6.4144727183
 C        -2.1240187208       -4.9598764389       -6.0228437093
 C        -0.9986976730        2.7618483859       -2.9972983033
 C        -2.8441634953        3.6757603184       -4.5778812595
 C         3.6468172703        2.4870932806       -7.1654533802
 C         3.0120345221        0.6852340449       -8.7899113677
 C         4.7704667222       -3.3728713958       -3.4745730001
 C         6.1198906164       -3.3003037850       -5.5516996543
 C         1.6358179267       -5.9385651595      -10.8890158834
 C         3.3741919939       -4.2059936884      -11.4685116222
 C        -2.4377287590        0.1129492638       -9.3914071102
 C        -3.2697328708       -1.8479794684      -11.0079097267
 C        -4.3739514721        1.3756248563      -16.3697551617
 C        -6.0777361256        3.0280871065      -15.4563166217
 C        -9.9963007103       -3.4283976614      -18.0129517801
 C        -9.9239665060       -2.3410019559      -20.2549240195
 C       -15.5908956999        0.5009735217      -20.5673894598
 C       -14.2438967447       -0.1748121642      -22.5943616850
 C       -10.2773759657        5.9626028699      -21.2541191441
 C        -8.3247378510        4.4676299950      -20.3689103348
 H       -11.8917061853        6.3519738093      -19.1196878267
 H       -10.2871777101        6.9372395250      -18.3945938488
 H       -11.2281744510        5.8452867474      -17.4459468881
 H       -11.6914864830        3.7760864642      -22.9326148503
 H       -12.5143366964        4.2829761974      -21.5073421063
 H       -12.2583719814        1.4501967340      -22.6949127468
 H       -13.6899473084        2.4802045989      -22.5679308996
 H       -14.8056760009       -1.4817056512      -18.6759144261
 H       -13.8488683585        0.0255579076      -18.4123461709
 H       -12.6886271112       -2.7772260821      -18.5736920394
 H       -12.8687525386       -1.8142764799      -17.0247072559
 H        -7.7483873634       -2.5187762024      -16.9955867865
 H        -8.7935941117       -1.5163200431      -16.0850288350
 H        -6.4928258596       -0.5732669842      -17.6962646298
 H        -6.1255012226       -1.3337451769      -16.1555393140
 H        -5.7802393284        2.3318630033      -12.6194920475
 H        -3.9957769037        2.4945236086      -13.0493343305
 H        -5.0731169106        0.1062626275      -11.7180607325
 H        -4.5235974384        1.6172807509      -10.8509982543
 H        -0.1028565823       -0.5318750766      -13.0968235851
 H        -0.8625352143       -2.1341908839      -12.6835060562
 H         1.8553641623       -1.6681452836      -11.4440677388
 H         1.6334650362       -2.0200723918      -13.1915903383
 H         3.6277940076       -5.0295304362       -8.5267658713
 H         2.1576243504       -4.9641270295       -7.7359479516
 H         2.8509696482       -2.4455253483       -7.4666371536
 H         4.3913313619       -2.7142066174       -7.6752720104
 H         4.2870634990       -0.1533697121       -3.2450581101
 H         2.8372996544       -0.9981036989       -3.9311858046
 H         4.2915050418        1.3574257797       -5.3112285591
 H         2.6864040992        1.3187930299       -4.2819052119
 H         0.7070424520        4.0528513096       -8.5216888070
 H         1.6941462004        4.1247806986       -6.9428912003
 H        -1.2985405981        3.0748938078       -7.4373770953
 H        -0.9433109237        4.5672849263       -6.5472952462
 H        -0.4078719534        0.0660812815       -4.9470685180
 H        -1.7321413819        0.1193176920       -6.1560406641
 H        -3.1496293275       -1.0235294420       -4.3818981907
 H        -1.5876896556       -1.6222791229       -3.7007923614
 H        -1.3817361215       -4.3001791020       -3.2335416501
 H        -2.3515479809       -5.6495738094       -3.2449504038
 H        -3.5144571360       -5.0768367139       -1.1646366753
 H        -3.0558836872       -3.3203320924       -1.4749242738
 H        -0.5384015780       -7.6458017022        1.9121580096
 H         0.9359807528       -7.6904813136        1.1241873649
 H        -1.1283188360       -9.5630019682        0.1062401204
 H        -0.3405851814       -9.7829753367        1.7281049956
 H         2.1378535953      -10.7513978137       -3.0278889892
 H         1.3458161880       -9.2332945240       -2.4829412374
 H         0.8360257421      -10.0135932330       -3.8607864741
 H         2.3965185033      -12.3193322501        0.1334409602
 H         2.5455124299      -11.8265251451       -1.5834011747
 H         1.7668440910      -13.3049732137       -1.0817609020
 H        -0.6027758504      -13.2118435748       -0.4810311883
 H        -1.3176553739      -11.7784533245        0.3107310366
 H        -0.0432860275      -12.6216641389        1.0098919993
 H        -0.0249929117       -5.2918494794        2.4886469693
 H        -0.6067478322       -3.8011022359        1.8395010092
 H         0.6164841636       -4.5896120973        0.9984986763
 H        -3.1329105508       -4.8912453590        1.5292247989
 H        -2.3094282716       -6.5480870463        1.9837183922
 H        -3.2792189009       -6.3933901006        0.6020191121
 H        -4.9026279011       -3.0450630898       -5.8461760238
 H        -4.5730376411       -4.4152687660       -6.7833867924
 H        -3.9048709020       -2.9624266647       -7.3294250710
 H        -2.7510319785       -5.8300828023       -6.1108741901
 H        -1.2918450906       -5.1299872236       -5.3527568703
 H        -1.7160105091       -4.8816106462       -7.0193383949
 H        -1.2367762705        3.6315852867       -2.3806312649
 H         0.1233483751        2.7342791323       -3.0735023733
 H        -1.2029043498        1.8315741205       -2.4906601457
 H        -3.1812680124        3.7421455525       -5.6329100943
 H        -2.7194736307        4.6076589900       -4.1994896751
 H        -3.7021619793        3.2330106878       -4.0728421754
 H         3.7244269473        3.2845302363       -8.0128999020
 H         4.6102443300        2.0306860959       -6.9785222230
 H         3.4007719028        3.0090260479       -6.2575535909
 H         2.3744445886        0.9790557049       -9.5932620318
 H         2.9893437901       -0.3682568292       -8.6625928013
 H         3.9679665434        0.9929682766       -9.1251525415
 H         4.0717977689       -2.8481725164       -2.8180083689
 H         5.7268727756       -3.4256943241       -2.9206947276
 H         4.5650893481       -4.4532836005       -3.5539961983
 H         6.7902236624       -3.1391552185       -4.7766638844
 H         6.4472522279       -2.8032673096       -6.5543723783
 H         6.0473530018       -4.3153202059       -5.8567047493
 H         2.3608852753       -6.4914120466      -10.4194130673
 H         1.5179160827       -6.3892504918      -11.9177485442
 H         0.6832202565       -6.0456598071      -10.3743181430
 H         3.3156848243       -4.1361163265      -12.6314635480
 H         4.0735549774       -4.9545667088      -11.1749516546
 H         3.8894741956       -3.2236358174      -11.2889946628
 H        -3.4441237185        0.3185565344       -9.1950778660
 H        -1.8947403621        1.0246141780       -9.2867050192
 H        -1.9367607792       -0.5462734431       -8.6382888984
 H        -2.7253384839       -2.7159773166      -10.5692474875
 H        -3.5418192624       -1.9721613922      -12.0246126959
 H        -4.1640449364       -1.6638280804      -10.4249078707
 H        -3.9984309235        0.3416188895      -16.2412901223
 H        -3.5438706680        1.9897520483      -15.9497067613
 H        -4.4252869229        1.7858680671      -17.3601221827
 H        -5.3688667123        3.6810386958      -14.8766713915
 H        -7.1311540668        2.9995057435      -15.0453585003
 H        -6.2027508439        3.3103536105      -16.5064274176
 H        -8.9952177247       -3.8242901796      -17.8503867866
 H       -10.4967923727       -4.0953375673      -18.5912085191
 H       -10.6509594491       -3.4142609499      -17.0339673276
 H        -8.9444007573       -2.8056740695      -20.5869917855
 H       -10.0109819977       -1.4762190738      -20.7921332126
 H       -10.6769095852       -3.0061296044      -20.6136073815
 H       -16.0834213943        1.2976098224      -21.1064421513
 H       -15.7278886857        0.8180238443      -19.5493880179
 H       -16.3046335625       -0.3013889116      -20.5834757740
 H       -14.7557253093        0.5574842938      -23.2541941292
 H       -14.7847074072       -1.1309109494      -22.6573506361
 H       -13.2336472221       -0.4565269632      -22.8634476054
 H        -9.6923237900        6.1486771612      -22.1799811072
 H       -10.0402688646        6.8031339691      -20.6439766376
 H       -11.2910191343        5.9376138675      -21.4142091553
 H        -8.0063176516        4.5728487611      -19.3463224080
 H        -7.8438355271        5.3161700663      -20.8706155754
 H        -8.0522434746        3.5561748455      -20.7988661316
 Na       -9.2952324770        1.6959773693      -18.4760151083
 Na        0.3428708922       -1.1763816943       -8.0465212392
