232

 C       -10.7129802638        6.1058881895      -18.0559628519
 C       -10.1390250756        4.8180008628      -18.6659294691
 O       -10.0079106447        3.8473275864      -17.8919980182
 C        -9.9996691145        4.5673488582      -20.1994273059
 C       -10.8390721709        3.3763408732      -20.7658790023
 O       -10.3539447145        2.2471630590      -20.7173913300
 C       -12.0268508839        3.5711521892      -21.7133426930
 C       -12.7436230631        2.2998786848      -22.0661377620
 C       -13.4248382970        1.6292324083      -20.8762595809
 O       -13.1173360014        1.9860078876      -19.7965284121
 C       -14.3539138377        0.2555766922      -21.0818871943
 C       -13.4993392957       -0.8629326660      -20.2495435984
 O       -12.6548610469       -1.5517008643      -20.8177429547
 C       -13.5110877371       -0.8607579338      -18.7008655722
 C       -12.4011832266       -1.7935402313      -18.0800964393
 C       -11.0277363804       -1.1399309771      -18.3377665715
 O       -11.0620945843        0.0928617981      -18.3092903967
 C        -9.8335253109       -2.0500691878      -18.6732695781
 C        -8.5442801076       -1.2856122401      -18.3086117042
 O        -8.0960094822       -0.4733369206      -19.1172124877
 C        -8.0468535945       -1.3852239370      -16.8279643548
 C        -6.7102286547       -0.6051253409      -16.5236160919
 C        -6.8533706603        0.8274053748      -16.1945239938
 O        -7.9421761295        1.3719684827      -16.4341225615
 C        -5.6501589096        1.5877127201      -15.5395019443
 C        -5.3150950783        0.8381589790      -14.0924377647
 O        -5.4758141200       -0.3692512073      -14.0177530681
 C        -4.8948529046        1.8084054259      -13.0453459869
 C        -4.3627338250        1.0001951240      -11.7884989708
 C        -2.9610642369        0.3480899784      -11.9867829612
 O        -2.3375706159        0.5504842850      -13.0102293308
 C        -2.4074618216       -0.4592696603      -10.7930736865
 C        -0.8967129193       -0.6741770919      -11.0240788399
 O         0.0172452551       -0.3276103203      -10.2625754652
 C        -0.4474335496       -1.4143035077      -12.3105094796
 C         0.8997228308       -2.0330740170      -12.0514321891
 C         0.8451166422       -3.6024859360      -11.7727180228
 O         0.0547130661       -4.3633982463      -12.2990524559
 C         1.9630845846       -4.2982403042      -10.8852563502
 C         1.9853339410       -3.6956724957       -9.5089330414
 O         1.1763867549       -2.8585294285       -9.1771561389
 C         2.8319830431       -4.2872110396       -8.3659044989
 C         3.5179737626       -3.2991136222       -7.5328969205
 C         3.6402731426       -3.6150728111       -5.9437795348
 O         2.7841963793       -4.1584904789       -5.3152103630
 C         4.8095837766       -2.8492035514       -5.1991991505
 C         4.4451007420       -1.3433633579       -5.3891805833
 O         4.8436690722       -0.7403244471       -6.3593689811
 C         3.7142260655       -0.5847919061       -4.3275003789
 C         3.2093591114        0.8965682027       -4.7729558025
 C         2.5758379975        0.5797839678       -6.3059435157
 O         1.8351549645       -0.3475869763       -6.3392020911
 C         2.6903498596        1.4795460226       -7.5902237930
 C         1.1898815324        1.9212805419       -7.6451572010
 O         0.3377835352        1.0909524632       -7.8493294589
 C         0.6444220640        3.5719629693       -7.6294357061
 C        -0.6452414094        3.8229129295       -6.7569090186
 C        -0.5821424937        2.9061214361       -5.5059705314
 O         0.4995315857        2.3653398992       -5.2905941787
 C        -1.7934138219        2.7196820642       -4.5065631684
 C        -2.4211433070        1.1695160506       -4.4948196444
 O        -3.5494921165        1.0106938177       -4.0874382402
 C        -1.6065062161        0.0872342095       -5.1109078743
 C        -2.1328156637       -1.3780711374       -4.7002940541
 C        -2.3119692628       -2.2818873084       -5.8758083505
 O        -1.7916301627       -1.9958201410       -6.9815175372
 C        -2.9268894558       -3.6706298514       -5.6288958889
 C        -3.2923968999       -4.0090500444       -4.0741394136
 O        -4.3307225731       -3.6583092302       -3.5369826047
 C        -2.1526476301       -4.4382027822       -3.1708104539
 C        -2.4964776574       -4.5977796952       -1.6504041531
 C        -1.2594112738       -4.6477862364       -0.7199917633
 O        -0.4075137346       -3.8011488700       -0.9163291270
 C        -1.2060944561       -5.5723357556        0.4115376395
 C        -0.8203148776       -7.0535134729        0.0445024204
 O        -0.9748357322       -7.5366423297       -1.0839143274
 C        -0.1700766435       -7.8993140029        1.0935184339
 C        -0.3488135474       -9.4562513204        0.9515133217
 C         0.7760485951      -10.0523200978        0.1655893081
 O         1.8198444992       -9.4755080675        0.0797619271
 C         0.6774443350      -11.4518152914       -0.6920768091
 C         0.3837227510      -11.1457783457       -2.2091550014
 O        -0.6034750704      -11.5398100256       -2.8332399240
 C         1.3384959975      -10.1824458227       -2.8734496404
 C         2.0113851359      -12.1712966929       -0.6247398018
 C        -0.4288730491      -12.2739837097        0.0980181250
 C        -0.2320530124       -5.0802552161        1.3934269406
 C        -2.6434427402       -5.7197425733        1.1013390320
 C        -4.3446674236       -3.7145309306       -6.3598177336
 C        -1.9520399904       -4.7359029576       -6.1299189002
 C        -1.1868298166        2.6000152254       -3.1124361220
 C        -2.8923968429        3.8704260588       -4.5241389159
 C         3.7937436923        2.6000976147       -7.4111217478
 C         3.0247880533        0.5621932724       -8.8148542203
 C         4.8098496711       -3.1846434111       -3.6998451202
 C         6.2053462362       -3.0581682283       -5.8450281257
 C         1.6044568824       -5.8111487019      -10.8475551283
 C         3.3733986024       -4.0609476250      -11.6849418104
 C        -2.7693386857        0.0575977204       -9.3845424860
 C        -3.1226492838       -1.9241780653      -10.9363191962
 C        -4.3369717822        1.2999359407      -16.3679237728
 C        -5.8972020985        3.0929637965      -15.2680023436
 C       -10.0729565259       -3.3973303425      -18.0232380896
 C        -9.7826702875       -2.1843475310      -20.2509885240
 C       -15.7427246476        0.3581380971      -20.4586675596
 C       -14.4978897881       -0.1816943567      -22.5386561012
 C       -10.2419874026        5.8585958695      -21.1032440344
 C        -8.5119776147        4.2050233171      -20.4775884628
 H       -11.6761265439        6.2415039873      -18.4023370808
 H       -10.1904148731        7.0115295998      -18.2417892674
 H       -10.7470834528        6.0146399177      -16.9731361637
 H       -11.5181519993        3.9194611874      -22.6627426381
 H       -12.8779115221        4.2340324414      -21.4731553714
 H       -12.1473744162        1.3851438021      -22.2457480887
 H       -13.5403372349        2.5181479420      -22.8764127480
 H       -14.5065069797       -1.2208294019      -18.4218825269
 H       -13.3418047002        0.1271902285      -18.2882892667
 H       -12.6008911501       -2.7718700551      -18.4824669145
 H       -12.5764078351       -1.8773095525      -17.0327194564
 H        -8.0746422502       -2.4022130205      -16.4962227431
 H        -8.9668671059       -0.9414003937      -16.3398484022
 H        -6.0158972589       -0.6521421369      -17.4316987187
 H        -6.1696092359       -1.0760827307      -15.6920445299
 H        -5.7702527259        2.3867987774      -12.8385309452
 H        -4.0375777413        2.3930151703      -13.3991214272
 H        -5.1268239765        0.2779746169      -11.5412007493
 H        -4.2631303382        1.8201731558      -11.0183105599
 H        -0.4087490302       -0.6696302075      -13.0267247593
 H        -1.1431729055       -2.1841883772      -12.7654781247
 H         1.4116922933       -1.4363763552      -11.2484393115
 H         1.5553652447       -1.9136125293      -12.9018480364
 H         3.6182604632       -5.1159375202       -8.7235165227
 H         2.1656959220       -4.8279168237       -7.6390496126
 H         2.7276964111       -2.3495287710       -7.5537217051
 H         4.5165330040       -2.8414835977       -7.9090913324
 H         4.3437344748       -0.4298170328       -3.4144737266
 H         2.8524373775       -1.2126545835       -4.0523430934
 H         4.1523483699        1.3981746389       -4.8608796496
 H         2.5009403051        1.2416854131       -3.9991493446
 H         0.2777084775        3.8076398166       -8.6358605995
 H         1.4841318359        4.1772737726       -7.3859351896
 H        -1.5674045658        3.5202601858       -7.2873679483
 H        -0.7628757124        4.9102701306       -6.4594119223
 H        -0.5291765377        0.3117039426       -4.8674207016
 H        -1.7570046303        0.1610325213       -6.2059533019
 H        -3.1050739964       -1.2454150711       -4.2606655086
 H        -1.5371770310       -1.8976492531       -3.9687458236
 H        -1.4117460167       -3.5847507235       -3.3308879033
 H        -1.6094745256       -5.3517278776       -3.5240150177
 H        -3.1291915810       -5.5276751883       -1.5075688163
 H        -3.1820258189       -3.7329206834       -1.4366186447
 H        -0.4009753024       -7.6210677206        2.1315114253
 H         0.9276446662       -7.6924857696        0.8832223493
 H        -1.3105608031       -9.7197652305        0.5022524837
 H        -0.2942413146       -9.8872608320        1.9685694531
 H         2.0062771420      -10.5772876850       -3.6313778184
 H         1.8329832051       -9.4668193576       -2.1902560291
 H         0.6941544231       -9.5161369709       -3.5306373744
 H         2.0362496601      -12.9381779806        0.1920474435
 H         2.7952038147      -11.4139713723       -0.5973508881
 H         2.1230857955      -12.7361160827       -1.5905834679
 H        -0.5735033271      -13.2443949673       -0.3918534557
 H        -1.4463728409      -11.9676838323        0.2741339823
 H        -0.0122757926      -12.5936821133        1.0756941604
 H        -0.2137198475       -5.7860428531        2.1779125280
 H        -0.5761054931       -4.1123986536        1.8924481198
 H         0.7533243192       -4.9141603105        1.1400952518
 H        -3.0945454289       -4.7385984990        1.1958603147
 H        -2.6056540466       -6.3614727959        1.9776151433
 H        -3.2824741202       -6.3410814932        0.4074597238
 H        -4.9585244405       -2.8524498032       -6.3298622194
 H        -4.9591118750       -4.5402568339       -5.9378249457
 H        -4.3165817899       -3.9695911895       -7.4061063253
 H        -2.3962124329       -5.6646094953       -6.4750245778
 H        -1.2083431191       -4.8513802915       -5.3382112888
 H        -1.4598479405       -4.3799205847       -7.0205777475
 H        -2.0667979888        2.3158525666       -2.4803821133
 H        -0.7003019228        3.4137274824       -2.6187294529
 H        -0.5109894930        1.7120173116       -3.1173316354
 H        -3.5271642798        3.9351865870       -5.3818487697
 H        -2.5192963558        4.9583882205       -4.2765048324
 H        -3.6106112598        3.5432271179       -3.7557705315
 H         3.7379037238        3.1558689332       -8.3161730718
 H         4.8340959095        2.2477981401       -7.2825599766
 H         3.5436949849        3.3278490048       -6.6074928698
 H         2.0865550143        0.1643258005       -9.2686360227
 H         3.6944238401       -0.3162923567       -8.5931879657
 H         3.4422112902        1.2182374357       -9.5930724983
 H         3.9106669786       -3.2643841583       -3.0695090868
 H         5.5049741416       -2.4690055907       -3.2891016814
 H         5.3707471722       -4.0751003512       -3.5458589685
 H         6.9831592463       -2.4454559340       -5.3243299799
 H         6.1644394218       -2.7919613954       -6.8228851967
 H         6.3528950523       -4.1597225287       -5.9886911915
 H         2.4730303858       -6.3688463332      -10.3415573856
 H         1.6172334568       -6.2314348745      -11.8134248194
 H         0.5950054849       -5.9967773501      -10.4377526598
 H         3.3982773534       -3.3384054984      -12.4468925842
 H         3.8826323517       -5.0312323695      -11.9519868557
 H         4.1138822583       -3.6046084989      -11.0180984321
 H        -3.8287851919        0.4130631502       -9.4275599289
 H        -2.1273809831        0.9203924845       -9.0519420918
 H        -2.5430271525       -0.6945477619       -8.6799003604
 H        -2.6211275271       -2.6212030531      -10.3685893562
 H        -3.0882584203       -2.0820946478      -12.0205944515
 H        -4.1240215556       -1.8532679570      -10.5804936436
 H        -4.3917478024        0.5012071008      -17.0571245095
 H        -3.4509300891        0.9939310128      -15.7996178650
 H        -4.0288445233        2.2711532253      -16.8173926463
 H        -4.9191976289        3.4445191342      -14.9783743518
 H        -6.6151689985        3.1878487823      -14.4343749156
 H        -6.3513616172        3.6205959850      -16.1312987563
 H        -9.1641404688       -4.0326612903      -18.0709920416
 H       -11.0256968014       -3.9459618793      -18.3955025065
 H       -10.2336181122       -3.2569051290      -16.9963761578
 H        -9.0927962265       -2.8732863621      -20.5689864360
 H        -9.6405661625       -1.2050261314      -20.9055228337
 H       -10.7009444537       -2.6682488546      -20.5750353409
 H       -16.3786609034        1.2116345951      -20.7361058412
 H       -15.8435279639        0.3704629772      -19.4003369694
 H       -16.3747542735       -0.5005087679      -20.6634968170
 H       -15.0003504790        0.6392202436      -23.0498054493
 H       -15.2026703287       -0.9993931574      -22.6264655349
 H       -13.5153094183       -0.4611179304      -23.0063021530
 H        -9.6070656436        5.7712003269      -21.9669033894
 H        -9.9079314716        6.7669220975      -20.5698230382
 H       -11.2949766295        6.0165820029      -21.4630009046
 H        -8.0083265021        3.9381574295      -19.5354436789
 H        -8.0246924194        5.0779110845      -20.8251980698
 H        -8.4140693486        3.3104265134      -21.1828144273
 Na       -9.3333503004        1.6751852472      -18.3488098168
 Na        0.4816835125       -1.0761415088       -7.8987785050
