232

 C        14.8527221179       -7.6107300040      -12.9431073198
 C        14.6487147504       -6.0747583813      -13.1534606290
 O        15.1896638187       -5.5359025659      -14.0974530597
 C        13.9080934798       -5.3216472628      -12.0696540376
 C        12.5249744023       -4.7569016684      -12.5897831616
 O        11.4255693814       -5.2926978901      -12.2744347861
 C        12.5320143695       -3.5281379011      -13.5847717029
 C        12.3752934473       -4.0383635493      -15.0043136961
 C        10.9764628890       -3.9010432345      -15.6417746582
 O        10.0851849693       -3.3582560391      -14.9793447467
 C        10.6740827064       -4.3934448601      -17.0468260886
 C         9.2105089941       -5.1243979439      -16.7348269240
 O         9.2183876164       -6.3180296123      -16.9168639313
 C         7.8987484576       -4.2651712059      -16.5725752163
 C         6.8246904665       -5.0324212096      -15.7643847049
 C         7.3310936690       -5.5841677226      -14.4147876133
 O         8.4928900623       -5.6610045365      -14.0515203987
 C         6.2988766483       -6.1797063810      -13.4500064873
 C         6.4362416779       -5.1680503692      -12.2260341246
 O         7.4006366549       -4.4250833662      -12.0486991665
 C         5.3642485907       -5.1975075171      -11.0340608719
 C         5.2002312230       -3.6982524475      -10.4336528978
 C         4.9597149942       -2.7515628914      -11.5680213751
 O         5.1216080308       -3.1532760401      -12.7075758623
 C         4.6010237382       -1.3182902344      -11.2686172722
 C         2.9041032282       -1.3521190020      -11.1387318955
 O         2.4618723350       -2.1665177338      -10.3206490310
 C         2.0234938000       -0.5668667761      -12.0496540230
 C         0.6474121872       -0.4040762899      -11.4078800925
 C        -0.3520937794       -1.2554279147      -12.2361791180
 O        -0.0121075123       -1.5236064667      -13.3736490109
 C        -1.6158386434       -1.6890916717      -11.5837745209
 C        -2.3497067957       -0.4019776712      -11.1730863009
 O        -1.8624024938        0.2884574651      -10.2452630197
 C        -3.5504031284        0.0903169489      -11.9458019707
 C        -4.1982064543        1.4089829307      -11.3915792965
 C        -5.6348185746        1.2114942587      -10.8490401427
 O        -6.3973778921        0.3644066701      -11.3426070466
 C        -6.1598509945        2.1751091361       -9.7335078171
 C        -7.6479771930        1.8335202989       -9.3096223977
 O        -7.8411494151        1.3639980532       -8.2062580481
 C        -8.7249547095        2.1744107626      -10.3052672677
 C        -9.9206135840        1.2600105308      -10.3064921222
 C       -11.1332786909        1.9318728697      -10.9385959187
 O       -11.5778087544        2.9363536653      -10.3923230962
 C       -11.6500888667        1.3042544051      -12.3053576386
 C       -12.4231341808        0.0338867494      -11.8142575100
 O       -12.2956610511       -0.4117120124      -10.6808757507
 C       -13.2961833388       -0.6457778871      -12.8594792314
 C       -13.6421336711       -2.1074301981      -12.6684749160
 C       -12.2712105866       -2.9877636375      -12.6014554947
 O       -11.3393549298       -2.5389062892      -13.1869981615
 C       -12.2471554293       -4.4194035196      -11.8573123620
 C       -11.1396666567       -4.5341133964      -10.8005072526
 O       -10.7097094054       -5.6115955262      -10.3598315676
 C       -10.3682237123       -3.2392011764      -10.4792722993
 C        -9.5378909651       -3.5060354600       -9.2414360273
 C        -9.1435916171       -2.2892257910       -8.3205521015
 O        -9.5685364859       -1.1568593866       -8.3298404996
 C        -8.3212008808       -2.7593279211       -7.0743695389
 C        -9.4668882695       -2.4699637272       -6.0153763180
 O        -9.4880625197       -1.4279681252       -5.3786612550
 C       -10.3027642385       -3.7985433222       -5.7677347258
 C       -11.6650978001       -3.5967528386       -5.0336845201
 C       -12.6936324489       -2.9255519991       -5.9232336630
 O       -12.4762583521       -2.6839449509       -7.1004116303
 C       -14.0795958643       -2.5302079540       -5.2868184183
 C       -14.1961563227       -0.9134870639       -5.2719774446
 O       -13.9803820430       -0.3185506129       -4.2482681552
 C       -14.4827959579       -0.2113219886       -6.6430596368
 C       -13.9719015638        1.2883211775       -6.7156334833
 C       -12.5256752706        1.2629172231       -5.9991289812
 O       -11.7869802091        0.3401823358       -6.2228886628
 C       -12.1878465562        2.4428982936       -5.0239181128
 C       -11.3813664782        3.3717439322       -6.1215201458
 O       -10.4466540419        2.8683952830       -6.7972291144
 C       -11.8354701654        4.7903186344       -6.4222251068
 C       -10.7355450320        5.7719230047       -6.5531182939
 C       -10.2981711592        6.1351789611       -5.0608588870
 O       -11.0750486685        5.7818418516       -4.1910130333
 C        -9.0101280827        6.9972435283       -4.7407361400
 C        -7.8589033366        5.9068736315       -4.6926948735
 O        -7.4738043997        5.5046594611       -5.7464319031
 C        -7.2573678636        5.4155357184       -3.3191214532
 C        -8.8791629643        7.9409318721       -5.8921783204
 C        -9.2202296522        7.6726712805       -3.4466797374
 C       -13.4598236883        2.9950375779       -4.3605659622
 C       -11.2606157721        1.9324143625       -3.9216257029
 C       -15.2055849076       -3.1067335145       -6.2138487779
 C       -14.1932303633       -2.8689409221       -3.8481072748
 C        -7.7593114311       -4.2140766585       -6.9920130271
 C        -7.1380409555       -1.7248534867       -7.0099544741
 C       -13.5394950483       -4.7838815042      -11.0611385729
 C       -11.7137354400       -5.4605246818      -12.9039799523
 C       -12.6147415469        2.3129158710      -13.0245864773
 C       -10.5635642166        0.8558842069      -13.3633840586
 C        -5.3259669406        2.1574608865       -8.3986000981
 C        -6.0753110070        3.5740656084      -10.2852337474
 C        -2.5029651541       -2.6136582574      -12.5043174981
 C        -1.2072587877       -2.4808873616      -10.2504402225
 C         5.3484686777       -0.8185527785       -9.9171721919
 C         5.0687231485       -0.4022662487      -12.3544691611
 C         4.8494863257       -6.4164534341      -14.0400415079
 C         6.8084719160       -7.5666775765      -12.9450595135
 C        10.5286906932       -3.2230745064      -18.1097222147
 C        11.6912689465       -5.4528688676      -17.4797046613
 C        13.7157139935       -6.1455034948      -10.7852122052
 C        14.7912681111       -4.0868049579      -11.7040926923
 H        15.8143049225       -7.6563056438      -12.3502674106
 H        15.3087811079       -8.1759030980      -13.7668566401
 H        14.0442446183       -8.0787153322      -12.4268277232
 H        13.4848185551       -2.9687015380      -13.4868832213
 H        11.7715202465       -2.8809142316      -13.2546269376
 H        12.5103772542       -5.1496899548      -14.9064856259
 H        13.1559582546       -3.6845312451      -15.7193142394
 H         7.6125066661       -3.8891222712      -17.6176557614
 H         8.0282929271       -3.4201681345      -16.0229191407
 H         6.2518940829       -5.7144012389      -16.4160736482
 H         6.1678573877       -4.2894323665      -15.4903439278
 H         5.5749488857       -5.9697336313      -10.3084131913
 H         4.3952426674       -5.3723053853      -11.4613297464
 H         6.0943890800       -3.3385022742       -9.9109033017
 H         4.4054892364       -3.6798233837       -9.7014712632
 H         1.8394296895       -1.1205077092      -12.9649457780
 H         2.5480202996        0.3343587797      -12.4398232061
 H         0.3294073559        0.5715056745      -11.7123907063
 H         0.5388013020       -0.4069330760      -10.3691838662
 H        -4.2738894100       -0.7197450736      -11.6892909491
 H        -3.3271570940        0.0275866806      -12.9893113791
 H        -4.2002755650        2.0614874851      -12.2696054921
 H        -3.6191488730        1.8456859667      -10.6272387751
 H        -8.2015709369        2.1497467074      -11.3093042995
 H        -9.1629597923        3.2783284463      -10.2351580641
 H       -10.0300505233        1.1631366403       -9.2037712982
 H        -9.6863241601        0.2329579432      -10.7228803151
 H       -12.9100212447       -0.5035740905      -13.8362073301
 H       -14.2857188312       -0.1357109244      -13.0085977904
 H       -14.2219009112       -2.4652786531      -13.4976549875
 H       -14.2669800977       -2.2868706532      -11.7880711066
 H       -11.0142553367       -2.3424537175      -10.2847010242
 H        -9.7271121676       -3.1627729594      -11.3734886720
 H        -8.5164369998       -3.8630282023       -9.5416282860
 H        -9.8085312491       -4.3599804389       -8.5982151932
 H        -9.6565988561       -4.5013344059       -5.1864006408
 H       -10.4981668715       -4.2911696193       -6.7167997536
 H       -11.5250603220       -3.0800647006       -4.0437334510
 H       -12.1953525860       -4.6136236380       -4.9482268424
 H       -15.6122249465       -0.3811161942       -6.8605199801
 H       -13.9238330055       -0.8288046393       -7.4095598254
 H       -14.7155329136        1.9897430751       -6.3063754403
 H       -13.8581570035        1.4758249300       -7.7532075838
 H       -12.6152168004        5.0477128728       -5.6820727803
 H       -12.6107919461        4.6444965625       -7.2260510207
 H       -11.0148570314        6.5744236273       -7.2349020179
 H        -9.8709909339        5.2439845872       -7.0262514725
 H        -8.1204618583        5.0117410448       -2.7634664497
 H        -6.8018752314        6.2545847021       -2.8165987248
 H        -6.4501157178        4.7049105418       -3.5742763261
 H        -9.7942500729        8.4988236759       -5.8122672032
 H        -8.7134637318        7.3323381998       -6.8179683576
 H        -7.9665408836        8.6110102803       -5.8733500957
 H        -8.4424985186        8.3638153281       -3.1694520882
 H        -9.2612693505        7.0208298438       -2.6422087621
 H       -10.1133783640        8.1906050828       -3.3856296207
 H       -13.0912815450        3.5978604802       -3.5816062299
 H       -13.8217437829        2.0873336223       -3.8493199106
 H       -14.2943457287        3.5174222770       -4.8281454406
 H       -10.2802421662        2.4265509227       -3.9700789760
 H       -11.1354668039        0.8738341477       -3.9350340210
 H       -11.5993350874        2.3689640675       -2.9847155195
 H       -16.1382298554       -2.5044295953       -6.1688481468
 H       -15.3621542500       -4.1536209521       -6.0818254626
 H       -14.9857402096       -2.9518406178       -7.2916650682
 H       -14.1757380442       -3.9464161855       -3.6039125938
 H       -15.1220861060       -2.3817743562       -3.4693256234
 H       -13.2702532225       -2.4195247555       -3.3427056502
 H        -7.1029713923       -4.3461528893       -7.8588091031
 H        -8.5010865512       -5.1095623495       -7.0146555809
 H        -7.1090245731       -4.2206999366       -6.1429478497
 H        -7.1976355392       -1.1650947138       -6.0052638069
 H        -7.2052770032       -0.9305891300       -7.7938175484
 H        -6.1455041539       -2.1746654642       -6.9826004715
 H       -14.4324167330       -4.1820411139      -11.3021378325
 H       -13.2829461656       -4.6292553965      -10.0312640334
 H       -13.7471438289       -5.8434069786      -11.1557116430
 H       -12.5217214048       -5.5655908494      -13.6008230626
 H       -11.5877657329       -6.3788933706      -12.3898801024
 H       -10.8113151425       -5.0804260848      -13.3923404375
 H       -12.0052641368        2.8544773207      -13.7395253739
 H       -12.9474691324        3.0810675909      -12.2519328520
 H       -13.4496807572        1.7300215428      -13.4483901934
 H       -10.9876306443        0.8135586979      -14.3451267313
 H       -10.2744393532       -0.1961936148      -13.0165521894
 H        -9.7188644863        1.5008041527      -13.2890175269
 H        -5.6569301286        1.3216890707       -7.8154261544
 H        -5.4678134878        3.0883668056       -7.8934095899
 H        -4.2776124244        2.0486596325       -8.5864566719
 H        -5.0250683610        3.7658271197      -10.4908120874
 H        -6.4686807333        4.3560449043       -9.5283230256
 H        -6.6252928654        3.6036121902      -11.2076908041
 H        -2.8918297931       -3.5018161613      -11.9313563861
 H        -1.9322743555       -3.0998314093      -13.2692041309
 H        -3.3224082152       -2.0506730912      -12.9361503809
 H        -2.1328300994       -2.7719786204       -9.6582153914
 H        -0.5704363476       -1.8236525988       -9.5415821184
 H        -0.6757206545       -3.4068856969      -10.4860709507
 H         5.2361428390       -1.4853635257       -9.0713718691
 H         4.9052244058        0.0422331112       -9.5371047787
 H         6.4227213653       -0.6405950370       -9.9698281952
 H         4.6303087419       -0.8205498936      -13.2256270745
 H         6.1704163028       -0.4439678186      -12.4031372544
 H         4.6026245276        0.5784744678      -12.2989387897
 H         4.1416178310       -7.0283682904      -13.5127537358
 H         4.9740640555       -6.9337760947      -14.9663517403
 H         4.2234608957       -5.4526925319      -14.0942014752
 H         7.9326915674       -7.5428268556      -12.9241420765
 H         6.3732063936       -8.2133589157      -13.6457988227
 H         6.4802765821       -7.7817660168      -11.9230862150
 H        11.3625975530       -3.0176558238      -18.7238004876
 H        10.2364100955       -2.2381403275      -17.6676938817
 H         9.6298604233       -3.4446789139      -18.6871766989
 H        11.6714569048       -6.3295064710      -16.8285605124
 H        12.7260268786       -5.0430009263      -17.5409047276
 H        11.5736013906       -5.8106832284      -18.4916714193
 H        14.6424383820       -6.6795803819      -10.4888835069
 H        12.9519461445       -6.8940494250      -10.9118977824
 H        13.4510681746       -5.3954612933       -9.9302408571
 H        15.6258301014       -4.5627667256      -11.2173582882
 H        14.1232194811       -3.4372706360      -11.1146900006
 H        15.0538487060       -3.3778803125      -12.5214303427
 Na       -9.3722174362        0.4627990183       -6.6763625977
 Na        9.7237683047       -4.0457706643      -12.8472956431
