232

 C        14.7005944318       -7.6647675397      -13.4135374741
 C        14.7198514455       -6.2227249434      -13.3922060545
 O        15.3154944686       -5.5727848618      -14.2155447098
 C        14.1425880231       -5.3713107207      -12.1175909430
 C        12.7310155896       -4.7625594569      -12.6715105466
 O        11.7303657224       -5.1106153941      -12.1344486067
 C        12.7690045822       -3.6392245808      -13.7270703226
 C        12.3421440004       -4.2451990643      -15.1354294234
 C        10.9141348676       -3.8734014266      -15.6304258660
 O        10.1876481194       -3.1134740921      -15.0028898262
 C        10.5475692174       -4.4212158762      -17.0720254763
 C         9.1066490432       -5.1957679287      -16.8637876440
 O         8.9837056732       -6.3832585263      -16.9919414858
 C         7.9422219821       -4.3188671591      -16.6234482871
 C         6.8533966442       -4.9261111264      -15.7308510330
 C         7.4597231812       -5.6913379946      -14.5553839172
 O         8.6273268749       -6.0139714457      -14.3189009713
 C         6.3509125179       -6.0652640447      -13.3536589465
 C         6.5408835696       -5.0689245385      -12.0845681705
 O         7.3771122290       -4.1911810535      -12.2084904881
 C         5.5535404564       -5.0242479835      -11.0116922951
 C         5.4007892705       -3.6353370270      -10.4705952655
 C         5.0537120765       -2.6542362244      -11.6160257510
 O         4.9721731718       -3.0124193485      -12.7788819689
 C         4.6115021846       -1.2398509710      -11.2393196171
 C         3.1046142228       -1.2784299019      -10.9687383417
 O         2.6987134153       -1.8117112766       -9.9980501750
 C         2.1486727601       -0.4190541518      -11.9498658185
 C         0.6733751039       -0.3504686434      -11.5508925818
 C        -0.3745924254       -1.3195402913      -12.2264380439
 O        -0.2406683262       -1.6782436680      -13.3474067902
 C        -1.7198622605       -1.6748545439      -11.4465693813
 C        -2.4890768860       -0.3428543931      -11.0709279090
 O        -2.1675422154        0.2703129663      -10.1283874354
 C        -3.6800685037        0.1294797878      -11.9234373503
 C        -4.2107381760        1.4272455305      -11.3170630059
 C        -5.5973229283        1.1223424809      -10.7411016568
 O        -6.2813467197        0.1318526387      -10.8905292675
 C        -6.1011979435        2.1441236326       -9.6745936857
 C        -7.5351662053        1.7228155662       -9.2944554848
 O        -7.7245308932        1.1755175819       -8.2290823759
 C        -8.6087790981        2.1444437952      -10.3307635100
 C        -9.9311848694        1.2264957110      -10.2936840958
 C       -11.1633188429        1.9412644022      -11.0811481125
 O       -11.5477860213        2.9741551119      -10.6321189762
 C       -11.8275037715        1.4186136947      -12.3677798315
 C       -12.6379606058       -0.0050973038      -12.0368359826
 O       -12.3106718607       -0.5565259691      -10.9752451434
 C       -13.4992593927       -0.6991192191      -13.0257274183
 C       -13.6737020640       -2.1996018999      -12.6095575567
 C       -12.3717453446       -2.9809026690      -12.5346782522
 O       -11.3087183892       -2.6632440879      -13.0675981540
 C       -12.3315359604       -4.3231454543      -11.7469272067
 C       -11.0627859055       -4.3325137435      -10.7707850090
 O       -10.8133108526       -5.4030751775      -10.3435411356
 C       -10.1544891239       -3.2018968252      -10.3686012407
 C        -9.2084674541       -3.6085787382       -9.2721887289
 C        -8.9531195237       -2.5151867753       -8.2576144593
 O        -9.4299635809       -1.4100511541       -8.5189432631
 C        -8.2160273190       -2.8419365011       -6.8975049590
 C        -9.4003343680       -2.6582683194       -5.9045507255
 O        -9.7066431622       -1.5992152509       -5.3864219359
 C       -10.3155970366       -3.8618328518       -5.6577781524
 C       -11.5728343320       -3.3887998842       -5.0222699460
 C       -12.7535507117       -2.9744680062       -6.0232815819
 O       -12.6545763780       -3.0008935713       -7.2164052991
 C       -14.1153328651       -2.6494427165       -5.3427603082
 C       -14.1930893116       -1.0144484537       -5.3569067794
 O       -14.0662109042       -0.2828055347       -4.3971749127
 C       -14.3885634957       -0.3063114893       -6.7467548246
 C       -14.0159222239        1.1219019269       -6.5072058564
 C       -12.6244458134        1.2100172973       -6.0552691445
 O       -11.6936925372        0.5086151186       -6.4122458890
 C       -12.1849798105        2.4440875439       -5.0044190275
 C       -11.3963298727        3.2730590619       -6.0131078478
 O       -10.3413953507        2.8293094646       -6.3862052944
 C       -11.8486356031        4.6312469467       -6.5260935397
 C       -10.5975939579        5.5511844420       -6.3779389606
 C       -10.4301273190        6.1457464082       -4.9673932146
 O       -11.1255685601        5.7772415664       -4.0356937768
 C        -9.0718303702        6.9925995875       -4.6915130506
 C        -7.7944970518        6.0891600750       -4.7468780622
 O        -7.3752732328        5.6778942249       -5.8271262210
 C        -7.0930453527        5.7857174794       -3.4078969573
 C        -8.8537836470        8.1270438923       -5.8106234285
 C        -9.3892377409        7.7281924124       -3.3358870328
 C       -13.4240026240        3.1797072145       -4.4057967396
 C       -11.1400482196        1.9442476408       -4.0055315842
 C       -15.3019617616       -3.0621840640       -6.2603250800
 C       -14.4231828642       -3.2063892088       -3.9192496158
 C        -7.6120190049       -4.3360052922       -6.9664360678
 C        -7.0727821094       -1.9073801717       -6.6063118146
 C       -13.6476289468       -4.7493230341      -10.8620816147
 C       -12.2752992558       -5.4678753780      -12.8174990263
 C       -12.7753313992        2.4646267511      -13.0374524974
 C       -10.6152024298        1.0220991140      -13.3116018398
 C        -5.1180902864        2.0865758126       -8.4750921775
 C        -6.1118227497        3.5648289554      -10.2677100369
 C        -2.4295128814       -2.7192394572      -12.3495905202
 C        -1.3880843720       -2.3916408218      -10.1806784911
 C         5.1360541205       -0.7132526934       -9.9105433561
 C         5.0655803858       -0.2417295553      -12.4652166499
 C         4.8328894327       -5.9956071301      -13.7670471682
 C         6.6676346643       -7.4647471301      -12.6936344176
 C        10.5251976147       -3.3105378064      -18.1222158832
 C        11.5333313100       -5.5403928242      -17.6671736946
 C        13.8825153550       -6.1788511172      -10.8609525969
 C        15.1386015056       -4.1245230916      -11.7657234361
 H        15.5481732240       -8.0507460793      -12.8404399162
 H        15.1188536441       -7.9596089029      -14.4186294826
 H        13.6860478988       -8.0586812037      -13.1278885385
 H        13.7597856650       -3.2665923178      -13.8720397314
 H        12.0806298886       -2.8286074267      -13.3335773118
 H        12.6446840348       -5.2644985432      -15.3552937908
 H        12.8988539122       -3.6002044507      -15.8159562893
 H         7.4875875231       -4.0529523503      -17.5174842031
 H         8.2938623229       -3.2155266858      -16.2396325640
 H         6.3748750965       -5.6298729202      -16.3971683119
 H         6.0382435224       -4.1399593096      -15.5289934720
 H         6.0447224330       -5.6234918371      -10.1881355683
 H         4.5604369664       -5.4508579755      -11.2922675777
 H         6.3248728454       -3.3567063742       -9.9501883801
 H         4.6045870263       -3.7540142680       -9.7069994402
 H         2.3656830934       -0.6022200408      -13.0188934850
 H         2.5217500354        0.5707749440      -11.8123042015
 H         0.3221358140        0.6997246530      -11.7894411675
 H         0.6388119000       -0.3364093672      -10.4216636369
 H        -4.4854363760       -0.6189442813      -11.9622655535
 H        -3.2996512494        0.3454663749      -12.9749789317
 H        -4.1364383329        2.2369820003      -12.0614929014
 H        -3.5895054621        1.7307767119      -10.4004160570
 H        -8.1965282678        2.2734506373      -11.2850836060
 H        -9.0155002055        3.0521044560      -10.1156230515
 H       -10.1776210851        1.1555981415       -9.2135998092
 H        -9.8386782154        0.2850336178      -10.7126831116
 H       -12.9893410134       -0.5802426669      -14.0269673713
 H       -14.4459134789       -0.2434429542      -13.1775695903
 H       -14.2809017008       -2.8146752486      -13.3213425031
 H       -14.1714663824       -2.3030017395      -11.6585405844
 H       -10.7770377542       -2.3687627575      -10.0401208751
 H        -9.5959922803       -2.9851228731      -11.2788253182
 H        -8.2823319569       -4.0364504372       -9.6085173286
 H        -9.5549508957       -4.4678875739       -8.6934866946
 H        -9.8882250266       -4.5513420562       -4.9494764855
 H       -10.4360373305       -4.3748342315       -6.6203963794
 H       -11.1664856291       -2.4979234436       -4.5582383748
 H       -12.0122180759       -4.0629276252       -4.3120830439
 H       -15.3236719081       -0.4323395323       -7.2114727121
 H       -13.6113083558       -0.7229380249       -7.3755150792
 H       -14.6822044044        1.5951330096       -5.7803141220
 H       -14.0397559770        1.6607684441       -7.5108514689
 H       -12.7916466297        4.9546669662       -6.1724527079
 H       -12.1850139313        4.3880608737       -7.5046094390
 H       -10.6241306579        6.4103117052       -7.1317504606
 H        -9.6537929537        5.0086623635       -6.5942019830
 H        -7.8047417630        5.2422238108       -2.8476449610
 H        -6.9340180841        6.7764165162       -2.9211292639
 H        -6.0745826385        5.4593481259       -3.5457219854
 H        -9.8065182326        8.6154175227       -6.0737550308
 H        -8.2996416107        7.7164956695       -6.6497620849
 H        -8.2472782812        8.8801895254       -5.3037911084
 H        -8.6792388301        8.5436049336       -3.1665578547
 H        -9.4290777111        7.1146702381       -2.3810946254
 H       -10.3665991625        8.2828089591       -3.2909656814
 H       -13.0238822231        4.0692614591       -3.8322965070
 H       -14.1107233832        2.5824111997       -3.7745083304
 H       -14.0587865744        3.6241960199       -5.2240470413
 H       -10.3126884385        2.6385147920       -3.9091107481
 H       -10.8156868941        0.9543859599       -4.3441668201
 H       -11.5555088619        1.9342940388       -3.0159506290
 H       -16.1738443921       -2.5601805833       -5.8754348184
 H       -15.3466030497       -4.1749943557       -6.3273799861
 H       -15.3209299943       -2.7157541254       -7.2791388868
 H       -14.6960022036       -4.2777828623       -3.9146591600
 H       -15.3195230140       -2.6405821990       -3.6187702409
 H       -13.6025219600       -3.1185870003       -3.2571756921
 H        -6.8047352306       -4.5331335813       -7.6764977991
 H        -8.3821689666       -4.9008788464       -7.3322515165
 H        -7.3799278496       -4.6270493708       -5.9293604518
 H        -7.3450415121       -0.9107385250       -6.3207774170
 H        -6.3514237322       -1.8055895017       -7.4702191180
 H        -6.4824857007       -2.3295285785       -5.7255708503
 H       -14.4854708944       -4.1043157133      -10.8766006996
 H       -13.4047141649       -4.9901611867       -9.8276038576
 H       -14.0195643686       -5.6588829137      -11.3481747897
 H       -13.1133548514       -5.5152593586      -13.4730336159
 H       -12.1175369615       -6.3638515885      -12.1854043436
 H       -11.4176876755       -5.2315075691      -13.4076290135
 H       -12.1568242102        3.1156311468      -13.6661685866
 H       -13.1351171358        3.0648284821      -12.2540681264
 H       -13.5779385756        1.9338359766      -13.5628759966
 H       -11.0639630656        0.6602979960      -14.2697077540
 H       -10.0037302425        0.2830091169      -12.9127477077
 H       -10.0656328300        1.9993286923      -13.4444490753
 H        -5.1352302411        1.0929584090       -8.0539559323
 H        -5.4762695443        2.8073875732       -7.7143583696
 H        -4.0998047238        2.3466758614       -8.7752354850
 H        -5.1094446582        4.0049640054      -10.1830155992
 H        -6.8331659981        4.0967004454       -9.7564039126
 H        -6.4063819551        3.5876008272      -11.3488945512
 H        -2.8104901126       -3.4936303967      -11.7528818484
 H        -1.7734588213       -3.2706373406      -13.0242718428
 H        -3.2953183625       -2.3247846365      -12.8851028883
 H        -2.3395767342       -2.7745907505       -9.7888552920
 H        -1.0900133351       -1.6891744660       -9.4434623795
 H        -0.6638804845       -3.2254603924      -10.2631191513
 H         4.6573181821       -1.2526398389       -9.1344521085
 H         5.0466185828        0.4105228832       -9.6643084671
 H         6.2299673877       -0.8042980725       -9.7359146121
 H         4.6253254580       -0.6309545280      -13.4466045392
 H         6.1414215303       -0.1410472233      -12.4796149532
 H         4.5891029963        0.7221012802      -12.2794063040
 H         4.1760906425       -6.4484294860      -12.9979324854
 H         4.5492664566       -6.6377207614      -14.6376413639
 H         4.4400227227       -5.0696166773      -13.7405611125
 H         7.3780459890       -7.2067911728      -11.9896107661
 H         6.8771744922       -8.2914242469      -13.3994746234
 H         5.7735164540       -7.7979747906      -12.1455624056
 H        11.5832832709       -3.0119388715      -18.2454116674
 H        10.0714163184       -2.3748846509      -17.7773163878
 H         9.8729797419       -3.4441751864      -19.0323832112
 H        11.3627698520       -6.5013543378      -17.1888428545
 H        12.5564318011       -5.3465989878      -17.6724908673
 H        11.3706657561       -5.7983925037      -18.7279647995
 H        14.6703546072       -6.9069424525      -10.5210270297
 H        12.9768651282       -6.7360582076      -11.1824232890
 H        13.7551936525       -5.5757058048       -9.9759692120
 H        15.8708926176       -4.4284677019      -11.0314342670
 H        14.5681915513       -3.2805829882      -11.5074612266
 H        15.5268179319       -3.8583693068      -12.6985534405
 Na       -9.4370588221        0.5154824242       -6.7842257220
 Na        9.4222692701       -4.0265158130      -12.9391435748
