232

 C        14.2847855430       -7.6003673995      -13.7979119371
 C        14.6517649165       -6.1087572274      -13.5963981141
 O        15.2469145306       -5.5366829279      -14.4391697520
 C        14.1973981409       -5.2850415215      -12.3053031077
 C        12.9495887958       -4.5699471439      -12.8000031424
 O        11.8862517176       -4.7515236981      -12.2614008115
 C        13.0402869540       -3.7412177657      -14.1930057718
 C        12.5298568272       -4.6408590118      -15.3083288330
 C        11.1012678654       -4.1214297442      -15.7737780535
 O        10.5162593750       -3.3916350729      -14.9909633772
 C        10.5185059376       -4.5730061069      -17.1271067088
 C         9.0125302502       -5.2016289120      -17.0282944361
 O         8.8215421575       -6.3243149778      -17.3739218814
 C         7.9630699508       -4.3068846181      -16.4602209588
 C         6.8246323472       -5.1620426335      -15.8066060824
 C         7.3231790929       -5.5924162353      -14.3869536613
 O         8.5157135403       -5.8384830393      -14.2174793990
 C         6.3118792352       -5.7674308775      -13.2136835853
 C         6.6584076241       -4.6827072279      -12.0381526160
 O         7.7653372365       -4.1833515615      -12.0878303141
 C         5.7024908519       -4.6593246710      -10.8615256457
 C         5.2597139006       -3.3254307168      -10.3173130136
 C         4.8553558346       -2.4318436274      -11.4861585308
 O         4.8231839833       -2.8131628539      -12.6388097173
 C         4.5431985157       -0.8750003045      -11.1530162146
 C         2.9980439154       -0.9403165319      -10.9006742368
 O         2.5541803777       -1.4104047875       -9.8859256965
 C         1.9357730541       -0.4137617722      -11.9070154784
 C         0.5197891859       -0.2950388255      -11.2542017922
 C        -0.3892383824       -1.2758885804      -12.0550625765
 O        -0.0787239934       -1.6889969871      -13.1215918523
 C        -1.7859432935       -1.7375820972      -11.3492600711
 C        -2.4922755596       -0.3712540586      -11.0067087409
 O        -2.2868544168        0.1809858918       -9.9836981033
 C        -3.5681929526        0.1044612998      -12.1060510275
 C        -4.3499879170        1.3400761120      -11.6912699334
 C        -5.5136843302        0.9776758002      -10.5757401586
 O        -5.9316902284       -0.1352886283      -10.4404857921
 C        -6.1323027511        2.0784486625       -9.6420421320
 C        -7.6399412193        1.6375537320       -9.3285876878
 O        -7.8865854405        1.2070425399       -8.2147197507
 C        -8.7326372845        2.1512347109      -10.2854670456
 C        -9.9902040766        1.2244036968      -10.4002169192
 C       -11.1209765495        1.9358163118      -11.1749873979
 O       -11.4489220754        3.0450975486      -10.8167567995
 C       -11.7882641259        1.2445375595      -12.4574721215
 C       -12.4251124745       -0.0752766181      -12.0175399698
 O       -12.2389033672       -0.4870168855      -10.8977687914
 C       -13.3194153991       -0.6414021364      -13.0843286447
 C       -13.7390978899       -2.0316994815      -12.7255485017
 C       -12.4521826285       -2.9141714253      -12.3903031153
 O       -11.3614025754       -2.5892370756      -12.9271822180
 C       -12.4961302785       -4.2326199469      -11.5423389458
 C       -11.1578361242       -4.4731211695      -10.5993306863
 O       -10.8468151073       -5.5884643072      -10.3440123112
 C       -10.2486181791       -3.2960903037      -10.2140194754
 C        -8.9512599293       -3.5571067191       -9.5138366004
 C        -8.8350412966       -2.6223064100       -8.2591170761
 O        -9.0128377560       -1.4418135853       -8.5212184943
 C        -8.2825773087       -2.9944750872       -6.8659659213
 C        -9.5389967221       -2.6536776027       -5.8554851239
 O        -9.7032726091       -1.4891918902       -5.4840202221
 C       -10.4497604427       -3.8029216176       -5.5342348287
 C       -11.7821659201       -3.3809383183       -4.8723631859
 C       -12.9385094072       -3.2837428905       -5.9281485901
 O       -12.6843344661       -3.5421790290       -7.0761398203
 C       -14.4233021403       -2.8141007252       -5.4700616234
 C       -14.2976486247       -1.3008874788       -5.4058901237
 O       -13.9511497132       -0.7825238856       -4.3674108251
 C       -14.5199009910       -0.4030775004       -6.6551607379
 C       -14.1336690147        1.0286066322       -6.3478914015
 C       -12.6187059172        1.2501109969       -6.1645687209
 O       -11.8757338354        0.4484250257       -6.6277912275
 C       -12.0486641580        2.4038348996       -5.2252508399
 C       -10.9533571638        3.2243575147       -5.9683411572
 O        -9.8304051778        2.6870626240       -6.2365896272
 C       -11.3109253102        4.6245862080       -6.6741098201
 C       -10.4197882023        5.8152789056       -6.3665734828
 C       -10.2338447555        6.2078590087       -4.9005107084
 O       -10.8737445505        5.6783238519       -4.0036006782
 C        -9.1828333139        7.2387247987       -4.5855383869
 C        -7.7763985269        6.3902695341       -4.7268358771
 O        -7.5117127267        5.8756761203       -5.8082086481
 C        -6.9307290790        6.1456767234       -3.4925517513
 C        -9.1884845741        8.4725765995       -5.6124217245
 C        -9.5246826774        7.8650171038       -3.2278600065
 C       -13.1314840363        3.3826097707       -4.6217688733
 C       -11.3678109267        1.5700781337       -4.0691613182
 C       -15.3693957617       -3.4316903299       -6.5144280834
 C       -14.8299579419       -3.3318745663       -4.0294105321
 C        -7.7863704712       -4.4407397375       -6.7537100875
 C        -7.1224412983       -2.0718629877       -6.4862388402
 C       -13.5934144169       -4.2654950631      -10.5293441694
 C       -12.5395782082       -5.4310767149      -12.6848215873
 C       -12.9642264578        2.2599404341      -12.8085308877
 C       -10.6268154116        1.1196575770      -13.4857576828
 C        -5.3988180333        2.1088772783       -8.2861123583
 C        -6.1380819671        3.5179738327      -10.2412540748
 C        -2.6434166693       -2.7463782911      -12.1343973024
 C        -1.2873341525       -2.4642362823      -10.0352556565
 C         5.4513576219       -0.4397421345      -10.0125666914
 C         4.8449881103       -0.0462294834      -12.4807698195
 C         4.8518583464       -5.8680936572      -13.6591715552
 C         6.7475685176       -7.1918703081      -12.7075903501
 C        10.3284283914       -3.3089704783      -17.9140531909
 C        11.4352122593       -5.5435121355      -17.8522085947
 C        13.8681108727       -6.3098465628      -11.2441660061
 C        15.2987913755       -4.3243979276      -11.9560681027
 H        14.7411032243       -8.1104658375      -12.9610219968
 H        14.6074649537       -8.0802476155      -14.7446017915
 H        13.1497960693       -7.6492130823      -13.7169921473
 H        14.0573412429       -3.5275848847      -14.4194850001
 H        12.4356868489       -2.8375367944      -14.1418748646
 H        12.3544319220       -5.6796365607      -15.0566787624
 H        13.2617817679       -4.7111648458      -16.1985607914
 H         7.5942803749       -3.7172096994      -17.2518081765
 H         8.2636419227       -3.4714414651      -15.7219431728
 H         6.6238857482       -5.9491283365      -16.4043258510
 H         5.9030027539       -4.5299542157      -15.8913403061
 H         6.2461991761       -5.0905278446      -10.0483264744
 H         4.8435307622       -5.2332670058      -11.1820961420
 H         6.1968578429       -2.9406526387       -9.8901093004
 H         4.5136064706       -3.4143348812       -9.5855845885
 H         1.9987826074       -0.9566711629      -12.8091493950
 H         2.2864683920        0.6522819757      -12.0983398935
 H         0.1697559127        0.6776316265      -11.1847454876
 H         0.6472395289       -0.5597385292      -10.1942014516
 H        -4.2167156205       -0.7637435249      -12.3502995503
 H        -3.0462844507        0.3159837433      -13.0203862082
 H        -4.9793668930        1.7739292520      -12.4748039009
 H        -3.6476619413        2.1049207211      -11.4311060391
 H        -8.4305651165        2.3514213606      -11.4018280600
 H        -9.0408100450        3.1741571547       -9.9129636263
 H       -10.5908406251        1.1696915210       -9.4661929726
 H        -9.6709290448        0.1962452887      -10.7433285921
 H       -12.7644926002       -0.6882688685      -14.0119255209
 H       -14.1966722277       -0.0185476195      -13.2580865320
 H       -14.3491138928       -2.5153739536      -13.4558375094
 H       -14.2963226503       -1.9714129218      -11.7644877458
 H       -10.9067985715       -2.5232864236       -9.8520173339
 H        -9.9841199550       -3.0624653770      -11.2916746557
 H        -8.0601761689       -3.4354465899      -10.1160203686
 H        -8.7867985578       -4.6331509899       -9.2272862013
 H        -9.9018612441       -4.3731253841       -4.7459804335
 H       -10.6648921855       -4.4410439644       -6.3738755622
 H       -11.7432397554       -2.3209417959       -4.4228448784
 H       -12.1575222498       -4.1023153836       -4.0987378324
 H       -15.6219295318       -0.4045291806       -6.8910228469
 H       -13.9045224276       -0.7813466359       -7.5750726999
 H       -14.6507200393        1.2686230132       -5.4492252956
 H       -14.5284265308        1.6372979594       -7.1658857767
 H       -12.4044250527        4.7405016081       -6.3875092137
 H       -11.3991908893        4.5252682758       -7.7624265870
 H       -10.8280608784        6.6624553141       -6.9475151246
 H        -9.4024198814        5.6552913517       -6.7968585891
 H        -7.6863003964        5.9471182241       -2.7091427838
 H        -6.2860482204        6.9560134077       -3.2213998017
 H        -6.2051180305        5.4090521673       -3.8131647157
 H       -10.2704295132        8.8379852568       -5.4804146865
 H        -9.2401905463        8.1101134099       -6.6327694473
 H        -8.5866949645        9.2615390751       -5.2710359825
 H        -8.8097953147        8.5459493023       -2.9052802375
 H        -9.7401767758        7.1437812955       -2.4886698484
 H       -10.4377967562        8.4196311681       -3.2805111636
 H       -12.7389784456        4.2251550967       -4.0307978609
 H       -13.8757036739        2.8267505367       -4.1059825649
 H       -13.6082959378        3.7461928343       -5.4715035840
 H       -11.5735123639        2.0093599432       -3.1222392176
 H       -10.2559953695        1.4867192821       -4.2805361337
 H       -11.7266417266        0.5329536001       -4.1177377026
 H       -16.3584480535       -2.9836794344       -6.4776670049
 H       -15.3703461299       -4.5455796465       -6.3147342311
 H       -15.0148829949       -3.2850357405       -7.5098474884
 H       -14.4072207144       -4.3527148451       -3.7861557652
 H       -15.9213661165       -3.4365273976       -3.9566619118
 H       -14.4408086408       -2.6660251046       -3.2580606960
 H        -7.1361891307       -4.5310149677       -7.6296503816
 H        -8.5332393751       -5.1736749511       -6.8711504010
 H        -7.2701415079       -4.5137671196       -5.7472970153
 H        -7.1450430753       -1.2735309002       -7.2187581050
 H        -6.1394937612       -2.5640157967       -6.5123192422
 H        -7.1816622764       -1.7171618927       -5.4221192397
 H       -13.2996727024       -3.5615698714       -9.7154036909
 H       -13.7153740177       -5.2232093879      -10.0200073791
 H       -14.5561502265       -3.8807669917      -10.8787715422
 H       -13.5491434690       -5.2781078034      -13.1519811593
 H       -12.4048453801       -6.4170071632      -12.2438811656
 H       -11.8172322390       -5.2116577343      -13.4320015111
 H       -12.6183395324        3.2836754916      -12.4671090865
 H       -13.8770180405        1.9848394929      -12.2661276092
 H       -13.1009357167        2.3176725622      -13.8871487559
 H       -10.9840274605        0.7094409415      -14.4415765609
 H        -9.9105716324        0.4457285813      -13.0957200090
 H       -10.2543141761        2.1323286663      -13.5771394314
 H        -5.0896547221        1.1322274447       -7.8896878084
 H        -6.0934846372        2.5304127453       -7.5944018222
 H        -4.5456909062        2.7603214471       -8.3832828101
 H        -5.1888000397        3.6654385348      -10.8035260483
 H        -6.3219181575        4.2371246575       -9.4825525291
 H        -6.9395622145        3.7442005552      -10.9675823043
 H        -3.7215417792       -2.6534003963      -12.1954068762
 H        -2.3759908203       -3.7645437320      -11.7440673867
 H        -2.3076368978       -2.8308281280      -13.1740356960
 H        -2.0994479754       -2.9809311498       -9.4842491916
 H        -0.8243597333       -1.8192291651       -9.3052630372
 H        -0.4643074041       -3.1594052231      -10.3945914105
 H         5.3707668193       -0.9517043812       -9.0773171070
 H         5.3447808625        0.6146521380       -9.7627392814
 H         6.4497412565       -0.4857733283      -10.2665038094
 H         4.2855485728       -0.4408620500      -13.3243468111
 H         5.9075747928       -0.1337881605      -12.6616300074
 H         4.7347916004        0.9904258226      -12.2286076120
 H         4.2307509095       -6.4604300864      -12.9165535987
 H         4.7813299413       -6.5024418722      -14.5738568619
 H         4.3340231083       -4.9657327633      -13.8294355276
 H         7.8033651974       -7.1639350675      -12.5036938308
 H         6.4509760888       -7.8869104065      -13.5459278663
 H         6.0835021510       -7.5232414876      -11.9266696222
 H        11.2419662283       -2.6647531809      -17.9201735845
 H         9.5169819006       -2.6814134504      -17.6602871434
 H        10.0021131542       -3.6366016649      -18.9117676099
 H        11.9600075297       -6.3068321200      -17.2548746254
 H        12.2408637954       -5.0319987916      -18.3820807033
 H        10.9399043833       -6.1646152069      -18.5852465841
 H        14.7993222859       -6.6032982023      -10.7733821238
 H        13.2675554477       -7.1871031649      -11.5976647060
 H        13.4468204950       -5.9045039851      -10.3669694202
 H        16.1895523088       -4.9948405871      -11.7543106217
 H        15.1107987398       -3.8373507621      -10.9490327103
 H        15.4570713358       -3.6645614989      -12.8344481000
 Na       -9.6315091542        0.3664095958       -6.8883439330
 Na       10.0172070637       -4.5363314811      -13.2848248651
