232

 C       -22.5624289087       -6.9216681972       -5.0917438211
 C       -21.4993430666       -6.2482207689       -4.1349249213
 O       -20.4340152438       -6.7351057765       -3.9492856023
 C       -21.8975650267       -4.9289732983       -3.3161300257
 C       -20.5949152473       -4.3422545391       -2.6704007315
 O       -20.0200577947       -5.0876345134       -1.8716461487
 C       -20.0471977933       -2.9562207161       -2.9951140335
 C       -18.7439729072       -2.6875651125       -2.2607329415
 C       -17.5040905002       -3.3460068087       -2.8565929015
 O       -17.4988151293       -4.0121843149       -3.8696981932
 C       -16.0821513219       -3.2458127742       -2.0987998363
 C       -15.9666018406       -4.6307464386       -1.3147353642
 O       -16.9861687478       -5.1133504493       -0.9252519477
 C       -14.6519404350       -5.3289904122       -1.0783791131
 C       -14.9918996305       -6.8367317379       -0.8977725862
 C       -15.2838630480       -7.6585923051       -2.1168359264
 O       -16.0832066492       -7.2137835689       -2.9293526685
 C       -14.3557640851       -8.8796195136       -2.2873465480
 C       -12.8802121781       -8.2595895582       -2.3631937577
 O       -12.7399879177       -7.0764796670       -2.5812647029
 C       -11.6720706596       -9.1409611917       -2.2124839298
 C       -10.3412826511       -8.6014019796       -2.9204392363
 C        -9.0694661065       -9.4490375921       -2.4828796405
 O        -9.0469408024       -9.8740085526       -1.3634466074
 C        -7.8096971368       -9.7901535202       -3.3981994014
 C        -7.3019748110       -8.4856281860       -4.2003220516
 O        -7.1298411509       -7.4985647209       -3.5679232450
 C        -6.9879347912       -8.6278989397       -5.6856072803
 C        -6.1677117774       -7.4488299160       -6.2369349905
 C        -7.1258629337       -6.4505305539       -7.0175734493
 O        -8.3278780315       -6.5818389390       -7.0259239947
 C        -6.3414622187       -5.2132375932       -7.4592517652
 C        -5.1110891719       -5.4452269698       -8.4066784875
 O        -3.9559560010       -5.3031066683       -8.0813785625
 C        -5.4395130077       -5.7159845273       -9.8718362342
 C        -4.8226478175       -4.5366020541      -10.7235185573
 C        -4.5729752856       -4.9338725185      -12.1876629590
 O        -3.8787169403       -5.8864409193      -12.4455822355
 C        -5.3489955392       -4.0376332211      -13.3190235581
 C        -4.6032881531       -2.6851543840      -13.2270630308
 O        -5.2586187345       -1.7453101386      -12.7935259192
 C        -3.0969504946       -2.6610574837      -13.3855859227
 C        -2.4021693902       -2.0613040456      -12.0842809818
 C        -0.9885509308       -1.6783523384      -12.5796528590
 O        -0.9557054296       -1.0287460205      -13.5833281537
 C         0.4611997283       -2.0941834234      -11.8487554344
 C         1.4273986145       -1.0771196830      -12.4908744516
 O         2.1607412359       -1.5189204472      -13.3567330542
 C         1.8537895239        0.2423231509      -11.8185635957
 C         3.3226376100        0.2867763698      -11.4422777139
 C         3.6915239287        1.4529306759      -10.5855916338
 O         2.7664307752        1.9997036905       -9.9785350095
 C         5.1423622644        2.0192093233      -10.3995247940
 C         5.2575630009        3.0170626070      -11.5717695497
 O         6.0748779250        2.6797387412      -12.3777968458
 C         4.2679436027        4.1451571293      -11.8369250877
 C         4.8562094305        5.5154577655      -11.4549036943
 C         5.6572659487        6.1408469710      -12.6121284228
 O         5.3540909355        5.7935179715      -13.7474064961
 C         6.7047183183        7.2813980795      -12.4951867946
 C         7.5627206321        7.3372484205      -13.8372466190
 O         7.3652721564        8.2067555781      -14.6480307828
 C         8.7067619079        6.2573748250      -13.9778002381
 C         9.2809506158        6.0447706612      -15.3514516806
 C         7.8981612851        5.8708530906      -16.2604032025
 O         7.0794065613        5.0228909572      -16.0253103637
 C         7.7108800895        6.6677118161      -17.6596716172
 C         8.3764326136        5.5967544271      -18.6675007795
 O         9.0916052461        4.6607423173      -18.2336568704
 C         7.9673252476        5.7797880236      -20.1041950756
 C         8.4746885412        4.7461884743      -21.0286658059
 C         8.2622032343        3.2658745669      -20.4972208927
 O         7.1868593674        2.9440696219      -20.0658052364
 C         9.4601013688        2.2381406106      -20.5042254962
 C         9.4302722472        1.2195671657      -19.2597793677
 O         9.5003398919        0.0259797989      -19.3426147263
 C         9.0546357062        1.8306396443      -17.9053363165
 C         8.6632602093        0.7862722111      -16.8640735484
 C         7.3726897247        1.1393013979      -16.1017714753
 O         7.4302586241        2.0532344450      -15.2770079479
 C         5.8303209260        0.5831438671      -16.4695124042
 C         4.9053290704        1.7997541056      -17.0040801739
 O         4.7419937047        2.7687378228      -16.2734055573
 C         4.3347486659        1.6823242293      -18.4042058152
 C         5.9483260607       -0.6705416632      -17.4003187061
 C         5.1442877471        0.1844138406      -15.1581605439
 C         9.1008843520        1.2332152169      -21.7363537642
 C        10.8871432333        2.9158680437      -20.5790958977
 C         6.2077970736        6.7492568975      -17.9509138009
 C         8.4333496954        7.9442357789      -17.9019217222
 C         5.9194181123        8.6474794156      -12.5158423955
 C         7.6761805735        7.2048752970      -11.2963944587
 C         5.3574569519        2.7167230467       -8.8953077091
 C         6.2804737211        1.0380714314      -10.5797490385
 C         0.3623848362       -1.9453330212      -10.2755496550
 C         0.7349978266       -3.6069528840      -12.3736737378
 C        -5.1445765322       -4.6819045614      -14.6926579749
 C        -6.8652489431       -3.9377516662      -12.8525374534
 C        -7.2828125079       -4.1434801187       -8.1181990271
 C        -5.7898849114       -4.5924126445       -6.1859483035
 C        -6.7165081869      -10.4100119037       -2.5723979978
 C        -8.3356694832      -10.9086636912       -4.3746735484
 C       -14.5965822548       -9.9160899158       -1.1588336005
 C       -14.6290969437       -9.5016435996       -3.7157105284
 C       -14.9396648269       -2.9834779889       -3.1953311102
 C       -15.9505880637       -2.0880229913       -1.0756881506
 C       -22.6082307480       -3.9669862172       -4.1947626835
 C       -22.8296924955       -5.3790436151       -2.2342116159
 H       -23.4868231624       -6.3860204316       -5.0236046616
 H       -22.8104525115       -7.8354662424       -4.7034024733
 H       -22.0371243921       -6.9825355296       -6.0660916439
 H       -20.8457861693       -2.3189690418       -2.6052338627
 H       -19.9949627937       -2.8509395506       -4.1029011856
 H       -18.9620401602       -3.1405357713       -1.3117398489
 H       -18.4808901683       -1.6355581065       -2.0530749397
 H       -14.2359522818       -4.9411174207       -0.0979386241
 H       -14.0371036560       -5.1347848613       -1.9300848644
 H       -15.7873175210       -6.7784190171       -0.0558714162
 H       -14.1814574843       -7.2471429761       -0.3921867052
 H       -11.7803363220      -10.1810897700       -2.5228445721
 H       -11.4677172593       -9.2032304551       -1.0689992382
 H       -10.1157452570       -7.5939704099       -2.5198619030
 H       -10.3352220798       -8.6442836881       -4.0085051555
 H        -8.0266090343       -8.6483301529       -6.1533193223
 H        -6.5007703180       -9.5920493948       -5.9173450958
 H        -5.3502901867       -7.7356736192       -6.9779745965
 H        -5.6690302717       -6.8241901522       -5.4432278623
 H        -6.5302203293       -5.7062039551       -9.9696880397
 H        -5.0700671306       -6.7245096449      -10.1816194444
 H        -3.9004922909       -4.2247829207      -10.2494774365
 H        -5.5438041925       -3.7095869955      -10.6957958770
 H        -2.8658682090       -1.9999636951      -14.1892754600
 H        -2.5200860213       -3.6067364423      -13.4665687552
 H        -2.2769919851       -2.8179256712      -11.3223115576
 H        -3.0771446001       -1.3763889835      -11.6757813568
 H         1.4057713061        0.4183845059      -10.8524498739
 H         1.5298277396        1.0226999453      -12.4781862849
 H         3.9067127929        0.4078530440      -12.4245961240
 H         3.5903064610       -0.6656556728      -10.9910305875
 H         3.3258548811        3.8793993651      -11.3041815057
 H         3.9136180341        4.0143575490      -12.8234665585
 H         5.5178599933        5.4995158183      -10.6065178226
 H         4.0910847615        6.2740262970      -11.2836831379
 H         8.4176401187        5.3331969430      -13.4715174031
 H         9.4899344826        6.6521106894      -13.3251039984
 H         9.8471579146        5.0881347501      -15.3403852327
 H         9.8829487320        6.7852460091      -15.8213892032
 H         8.1839115816        6.7936900462      -20.4530528600
 H         6.8960830030        5.8687855181      -20.0137452316
 H         9.5847737850        4.8098798884      -21.2002052051
 H         8.0896378588        4.9465254102      -22.0539040720
 H         8.4182180829        2.7116881735      -18.1681940138
 H        10.0137139053        2.3349564337      -17.7591062884
 H         9.4387599032        0.8177076588      -16.1234426575
 H         8.6181142594       -0.1965033105      -17.2057274548
 H         5.2266604563        1.7082957830      -19.0342218006
 H         3.7495633515        2.5830122214      -18.6974609146
 H         3.7632230543        0.7592368833      -18.7113718230
 H         5.0332871935       -1.2346599355      -17.5679673390
 H         6.6821099075       -1.3928037282      -17.1960101854
 H         6.2934680043       -0.4090214250      -18.3558843663
 H         4.2829987210       -0.5157967852      -15.0804619761
 H         5.1352931785        1.0637827469      -14.5037844381
 H         5.8859161224       -0.5820051835      -14.8317518210
 H         9.9015974105        0.4017634635      -21.6305472274
 H         9.3612077752        1.5916077066      -22.7605624741
 H         8.0965067494        0.7829947615      -21.7810988541
 H        11.4858283770        2.0522996116      -20.6373947766
 H        11.1163923516        3.5991021660      -19.7828105514
 H        11.0753021551        3.4354195778      -21.4672233915
 H         5.8284979082        7.4461213692      -17.1680164032
 H         5.6586953009        5.8254087407      -17.7895802316
 H         6.0227017905        7.0621781906      -18.9456510624
 H         9.4155611716        7.7470219656      -18.0480570967
 H         8.1824376022        8.6182805423      -17.0660473818
 H         8.0519491073        8.5132366803      -18.7677266358
 H         6.5842761768        9.5422863904      -12.6979912110
 H         5.5193238272        8.7680495458      -11.4962175656
 H         5.1458738866        8.4934367934      -13.2620623038
 H         7.1138349212        7.2664090665      -10.3033735589
 H         8.2809701692        8.0711586428      -11.3422859175
 H         8.3515021564        6.3101448012      -11.3277677450
 H         6.3950774928        2.7227418348       -8.6313818734
 H         4.7226344761        2.2071838027       -8.1527479234
 H         5.0552027178        3.7369284132       -9.1015794190
 H         6.3285468291        0.2124810097       -9.8607982715
 H         7.3258335325        1.2977505744      -10.6034965981
 H         6.2280280045        0.5419036282      -11.5658962125
 H        -0.0000261266       -0.8848238798      -10.1619725913
 H         1.2638059327       -2.2461095169       -9.7454596890
 H        -0.5403247133       -2.5169295676       -9.9850371408
 H         0.0298952978       -4.2428705073      -11.9049969640
 H         1.7293072378       -3.8551802704      -12.1194987747
 H         0.6862203252       -3.6565960124      -13.4663245788
 H        -6.0423783747       -4.3848755791      -15.2349887981
 H        -5.3490955579       -5.7468520110      -14.6868462393
 H        -4.1223574992       -4.4870378496      -15.1144574022
 H        -7.3954778825       -3.2814024322      -13.5406014873
 H        -6.8806085287       -3.3416480649      -11.8948380129
 H        -7.1463721431       -5.0018621239      -12.8098645486
 H        -8.3679213612       -4.4064215171       -7.9364079720
 H        -7.1252179097       -4.0243036235       -9.2268512991
 H        -7.0494791139       -3.2047069061       -7.5256204258
 H        -6.5112935395       -4.4856627050       -5.4379443577
 H        -5.4518477885       -3.5941097908       -6.4794072255
 H        -4.9874961267       -5.1323098346       -5.6838654673
 H        -7.1061109554      -11.2884055205       -2.1145205589
 H        -6.4804497710       -9.6624094320       -1.8067787335
 H        -5.8844253904      -10.7317567559       -3.1895680235
 H        -8.7402658406      -11.7488993189       -3.8669281336
 H        -7.5031625534      -11.3481906186       -5.0024327784
 H        -9.1952451654      -10.6471167898       -4.9619097145
 H       -14.4636831891       -9.5741380099       -0.1529804891
 H       -13.9167992276      -10.7824518474       -1.3947106805
 H       -15.5457856447      -10.3546884408       -1.2085914333
 H       -14.8475756809       -8.7968782855       -4.4118896688
 H       -15.3655987494      -10.2459241479       -3.7854447704
 H       -13.7960067068       -9.9462383260       -4.1765549420
 H       -14.7664026076       -3.8597409214       -3.8730789958
 H       -14.0434672593       -2.6652683823       -2.6901338497
 H       -15.3371394610       -2.1712479301       -3.6931681868
 H       -16.7085434337       -1.9709708912       -0.3625099819
 H       -15.9938459438       -1.0896047540       -1.6425420170
 H       -15.1210225754       -2.1862536847       -0.4299774275
 H       -22.1364710865       -3.7674728856       -5.1222501101
 H       -22.6652684556       -2.9819640204       -3.8188938302
 H       -23.6602004438       -4.2588162125       -4.3835762178
 H       -23.4149271157       -4.5589819723       -1.7993292620
 H       -22.2378191489       -5.8202106399       -1.4518168745
 H       -23.5374425738       -6.1496528732       -2.5592491718
 Na      -18.2022843787       -5.8952524597       -2.9829702719
 Na        5.9801359525        3.6838628928      -14.6930305598
