232

 C        14.1601117921       -7.9325174284      -14.3522674227
 C        14.8669637286       -6.6527410333      -14.2615913431
 O        15.7041984210       -6.2872484321      -15.0114744058
 C        14.4478786466       -5.5259576968      -13.0297149121
 C        13.0913483806       -4.9334779199      -13.4329068000
 O        12.0582298666       -5.1967875751      -12.8086062259
 C        13.0585733222       -4.0061182830      -14.6835403377
 C        12.4772754122       -4.5961284947      -15.9195887976
 C        11.0086780352       -4.2976499312      -16.0124159821
 O        10.3808539147       -3.7481577220      -15.1378962458
 C        10.2512561770       -4.5234852538      -17.3356423219
 C         8.7603490641       -5.1997983145      -17.0744327139
 O         8.6033540985       -6.3958853930      -17.3717150307
 C         7.7944919185       -4.2692901389      -16.4712376512
 C         6.8013776330       -5.0123790919      -15.5314347984
 C         7.4596428843       -5.4138042048      -14.2290022158
 O         8.6571141463       -5.4458867412      -14.2086212277
 C         6.5301186407       -5.5048744094      -13.0451258617
 C         6.9260459656       -4.4082022417      -11.8671145400
 O         8.0509203625       -3.9474927777      -11.7485558902
 C         5.7749366450       -4.0428717763      -10.9383772391
 C         5.5137008824       -2.5461313981      -10.6903135721
 C         4.9874113726       -1.6727066246      -11.8830690758
 O         4.8161124376       -2.1431632926      -12.9843120875
 C         4.5187256740       -0.2324571941      -11.4147422063
 C         3.0275176034       -0.5810488271      -10.5850692880
 O         3.1839809393       -1.2140812070       -9.5847473025
 C         1.7801837988       -0.1346323938      -11.2488876228
 C         0.4988632432       -0.5341397020      -10.4960534768
 C        -0.4533278903       -1.4233657446      -11.5367625060
 O         0.0033581994       -1.6813259958      -12.6238310234
 C        -1.8530249879       -1.8240131428      -10.9382690285
 C        -2.7358120452       -0.5423370917      -10.8447114645
 O        -2.5706382543        0.2635699597      -10.0082713352
 C        -3.8266652565       -0.2902358181      -11.9114480015
 C        -4.4280962636        1.0463108780      -11.6274991849
 C        -5.4264989099        0.9203715719      -10.3958869101
 O        -5.6608382052       -0.1794481190       -9.9499141597
 C        -5.9845796398        2.1354958108       -9.5861379662
 C        -7.4963275392        1.8344443521       -9.3891253885
 O        -7.7851625545        1.2388976032       -8.3541034547
 C        -8.4926469767        1.9805866452      -10.5559253262
 C        -9.7864386549        1.0455525234      -10.6303110697
 C       -10.9913428737        1.9978635416      -11.1095116481
 O       -11.2593000306        3.0546251678      -10.5901228562
 C       -11.7005970678        1.5107721871      -12.3158887370
 C       -12.4223797890        0.0949556462      -11.9843838491
 O       -12.3374327432       -0.2958983706      -10.8412269617
 C       -13.1811831147       -0.6283168855      -13.0672953283
 C       -13.7431295390       -2.0005917211      -12.5816810739
 C       -12.4932968306       -2.9565909687      -12.3305276338
 O       -11.5324376752       -3.0572555731      -13.1080274784
 C       -12.4697727338       -4.0365666330      -11.0981115618
 C       -11.0671556732       -4.5643381718      -10.8639787119
 O       -10.8185084512       -5.7093302199      -11.0358960241
 C       -10.0730775482       -3.5277125947      -10.2740719151
 C        -9.5942777141       -4.0864422214       -8.8977475540
 C        -9.1236436126       -2.9289681672       -7.9596930440
 O        -9.3623066452       -1.8196649954       -8.3421778239
 C        -8.6920541732       -3.0695754675       -6.4633356181
 C        -9.9702484988       -2.8560542501       -5.6019962646
 O       -10.4393610540       -1.7380981196       -5.5029208764
 C       -10.6145325885       -4.0200502318       -5.0157153449
 C       -12.0175354396       -3.8213096983       -4.4264337859
 C       -13.0122688668       -3.8587780083       -5.7376695740
 O       -12.5451550503       -4.4913557556       -6.6864841748
 C       -14.3689693572       -3.1913311043       -5.7590436071
 C       -14.1701835988       -1.6134685627       -5.5159998380
 O       -13.9470413432       -1.2669035421       -4.3888543255
 C       -14.3855603596       -0.6110638039       -6.6399478002
 C       -14.2463602349        0.8257026720       -6.0412114570
 C       -12.7984014795        1.3733375517       -6.3626233792
 O       -12.2022656507        0.8002059773       -7.2158939678
 C       -12.0536743084        2.3827608472       -5.3855434544
 C       -10.8082564892        3.0106484573       -6.1597557248
 O        -9.7668420775        2.3400642259       -6.3233075595
 C       -10.8567595601        4.4207411858       -6.8725828491
 C        -9.6475022917        5.3004483220       -6.4654866487
 C        -9.8270378811        5.7984816539       -5.0075255177
 O       -10.5342710795        5.0794781655       -4.3110698337
 C        -9.2912996697        7.1200723183       -4.5071697868
 C        -7.6461880195        7.1295285885       -4.6926124606
 O        -7.1929469506        7.0654625318       -5.8101495058
 C        -6.8136174149        7.2979002282       -3.3956382948
 C        -9.7129944138        8.3067719501       -5.4738209407
 C        -9.7727132500        7.4639122454       -3.0397501173
 C       -13.0617589373        3.3160238227       -4.6896871492
 C       -11.2608925515        1.4924132942       -4.2485339007
 C       -15.0762754200       -3.4270378651       -7.0541003315
 C       -15.1474526363       -3.6344633948       -4.4937776468
 C        -7.8802615105       -4.4328125802       -6.2340712676
 C        -7.6952158760       -1.8907541294       -6.1640351777
 C       -13.1421913499       -3.4556489416       -9.9224491410
 C       -13.2412663302       -5.1556581907      -11.8847163940
 C       -12.8820088425        2.3583352283      -12.7324063646
 C       -10.7191500420        1.2792112159      -13.4699198476
 C        -5.1931963845        1.9799048485       -8.2929297856
 C        -5.8644925188        3.4880063700      -10.3188421509
 C        -2.5232520705       -2.9016671978      -11.8019338329
 C        -1.7864763301       -2.3033050890       -9.4344203973
 C         5.3240939019        0.5493905848      -10.4000435841
 C         4.4378784667        0.6226999068      -12.8639514659
 C         5.0558075630       -5.3580575282      -13.4292860961
 C         6.7501702490       -6.8973570040      -12.3272762535
 C        10.2158207930       -3.1541058795      -18.0116539246
 C        11.1148044509       -5.5157043410      -18.2350008813
 C        14.3081421485       -6.2787570077      -11.6323475427
 C        15.5226837469       -4.3971215121      -12.9164921567
 H        14.6386188009       -8.4949216136      -13.5646779658
 H        14.1315761621       -8.1707242129      -15.4430681628
 H        13.0919091683       -7.8275067299      -14.0107342894
 H        14.0385485695       -3.5945219517      -15.0185915899
 H        12.4927853896       -3.1192638709      -14.3146916917
 H        12.5555834349       -5.6358209897      -16.0590626565
 H        13.0337351188       -4.1801472778      -16.7974996558
 H         7.1409230570       -3.8844921110      -17.2483098209
 H         8.1991168308       -3.4107281882      -15.7725645815
 H         6.1965076960       -5.7450643974      -16.0585311950
 H         6.0415246311       -4.1262774220      -15.3439092670
 H         5.9202224170       -4.4901252851       -9.9253538280
 H         4.8401105933       -4.5560289585      -11.2700543281
 H         6.5583918788       -2.1423317443      -10.4278201583
 H         4.9252209941       -2.4589229083       -9.8058972251
 H         1.7675952721       -0.2901124252      -12.3093892931
 H         1.8062396286        0.9975429515      -11.0841142906
 H         0.0143781140        0.3438059219      -10.0611016597
 H         0.8228315848       -1.1508437235       -9.5951290223
 H        -4.6610239497       -1.0792196618      -11.8846267577
 H        -3.5486625551       -0.2879720248      -12.9761024039
 H        -5.1850250862        1.4394496881      -12.3913054645
 H        -3.7072262068        1.8511001599      -11.5511976552
 H        -8.0454038438        1.8223181176      -11.4843968837
 H        -8.8525445642        2.9337696163      -10.5708609325
 H       -10.1356673539        0.6478798493       -9.7000808910
 H        -9.5290079629        0.1781621206      -11.2378605618
 H       -12.5420167510       -0.7927732857      -13.8949545249
 H       -14.1183482340       -0.1239822658      -13.3892274022
 H       -14.2474743376       -2.4750339164      -13.3969664386
 H       -14.4683035197       -1.9124559442      -11.7168454206
 H       -10.5204392399       -2.5719397532      -10.0588414401
 H        -9.2833531655       -3.3610210460      -11.0437941595
 H        -8.7785280382       -4.7689130289       -9.0846502391
 H       -10.3585259040       -4.5087424980       -8.2550300251
 H       -10.0909461369       -4.5104398760       -4.1689580921
 H       -10.6926402887       -4.7084465324       -5.8288589474
 H       -12.1316716570       -2.9679158761       -3.7984795725
 H       -12.3187724964       -4.6384164367       -3.8143741274
 H       -15.3377567780       -0.7117576947       -7.0144776420
 H       -13.6514225502       -0.7351497739       -7.4239583881
 H       -14.5582550579        0.8190523428       -4.9726425936
 H       -14.9676131480        1.5437565133       -6.5340358686
 H       -11.8550600098        4.8277434301       -6.5030195498
 H       -10.8401762347        4.0548918013       -7.8896433429
 H        -9.5812803407        6.2121076030       -7.0180653464
 H        -8.6944180610        4.7406925913       -6.6437779281
 H        -6.8454511497        6.2920067663       -2.8818383436
 H        -7.2510527715        8.0369833504       -2.7525364477
 H        -5.7376482747        7.4101391332       -3.6143933919
 H       -10.7045288603        8.0231336204       -5.9754652398
 H        -8.9520334654        8.4454612191       -6.2477326525
 H        -9.7996478133        9.2385734177       -4.9797297757
 H        -9.9304418377        8.5018197414       -2.7922406726
 H        -9.0205549337        7.1016343906       -2.3265670968
 H       -10.6805110836        6.8512459390       -3.0642008778
 H       -12.5085258352        4.1589524805       -4.1398219536
 H       -13.6378806548        2.6986055780       -3.9407309689
 H       -13.7797007822        3.6662606906       -5.4313137353
 H       -10.3307308810        1.9215786849       -4.0592796504
 H       -10.9982196500        0.4924134339       -4.6589033255
 H       -11.8967682203        1.3765365369       -3.3907134654
 H       -16.0882181978       -3.0416014852       -6.8846268504
 H       -15.2704406681       -4.5254493994       -7.2642456672
 H       -14.4594905290       -3.0112882217       -7.8225237956
 H       -15.1492210744       -4.7577961239       -4.2892874554
 H       -16.2160903836       -3.3102409523       -4.5822537427
 H       -14.9172233249       -3.0607769384       -3.5949704680
 H        -6.9165771947       -4.0477714765       -6.5185453202
 H        -8.2147963758       -5.2052283083       -6.8397946198
 H        -7.7799203590       -4.8541903136       -5.2133631895
 H        -8.1960436953       -0.9760359717       -6.3735065072
 H        -6.9657720670       -2.0677062655       -7.0089501370
 H        -7.2254030779       -1.8487747652       -5.1155078672
 H       -13.4801756326       -2.4415668066      -10.0635573213
 H       -12.5190078820       -3.4658668853       -9.0732655621
 H       -14.0397847232       -3.9598912580       -9.6693809647
 H       -14.2923648648       -4.8327089310      -11.9868934096
 H       -13.1574985976       -6.0535780490      -11.3140015394
 H       -12.7149079827       -5.2677919724      -12.7808335456
 H       -12.6826759031        3.4881012228      -12.7316421513
 H       -13.7595830710        2.1739441251      -12.0940976673
 H       -13.1745966091        2.0732219716      -13.7545672282
 H       -11.3587738723        1.0252779756      -14.3649502585
 H       -10.1002551632        0.4459874093      -13.1830096705
 H       -10.0860601561        2.1340839954      -13.7783865281
 H        -5.0071125375        0.9450118300       -8.0253779508
 H        -5.7538332664        2.4478270781       -7.5409063992
 H        -4.2732120918        2.5195996366       -8.3091173534
 H        -4.8772340346        3.9297585269      -10.4374898440
 H        -6.3389164167        4.2920427747       -9.8067916698
 H        -6.3247581942        3.3613652992      -11.2773595487
 H        -3.5741025681       -3.0118231451      -11.5292184899
 H        -2.0401891929       -3.9068717580      -11.6882786887
 H        -2.4875919150       -2.6418676581      -12.8439641155
 H        -2.6801684954       -2.8920136502       -9.1365540291
 H        -1.6588631770       -1.3561764285       -8.9165140904
 H        -0.9661816726       -3.0541419591       -9.1819220705
 H         5.2588153704        0.0021385575       -9.4691591810
 H         4.8481695400        1.5395307913       -9.9943400315
 H         6.4228130607        0.6787542080      -10.5689192704
 H         3.9859515029       -0.0155384379      -13.6172900916
 H         5.4981865050        0.8455752776      -13.0895132037
 H         3.8512559042        1.5180820254      -12.6503279610
 H         4.5956575894       -6.0131698008      -12.6219530480
 H         4.7992373221       -5.7287181544      -14.4307535806
 H         4.5873457936       -4.4314743348      -13.4991136528
 H         7.7353621818       -6.9342661589      -11.9072120142
 H         6.7305065229       -7.7030000869      -13.0984211431
 H         6.0118108956       -6.9329977070      -11.5651168864
 H        11.1950003851       -2.6245456609      -18.0903512354
 H         9.6157159630       -2.5407477476      -17.3821514675
 H        10.0064910040       -3.2260567774      -19.0916270437
 H        11.6629320762       -6.2440446970      -17.6446441955
 H        11.8710492689       -5.1154618338      -18.8982503680
 H        10.4840949941       -6.0809833930      -18.8697437004
 H        15.2697820836       -6.7813065426      -11.4715903349
 H        13.5272670392       -7.0890188363      -11.4493572528
 H        13.9465956399       -5.6046588779      -10.8848401222
 H        16.3185402546       -4.6581631733      -12.2398665002
 H        14.9840574058       -3.5817225049      -12.4702370942
 H        15.9419374497       -4.2882665348      -13.8672550428
 Na       -9.8159588511        0.1533428644       -7.1497198160
 Na       10.1364171026       -4.1126615303      -12.9525120323
