232

 C        14.1269663435       -7.9209136562      -14.2391927604
 C        14.8797707914       -6.6322136768      -14.2751346728
 O        15.7236209775       -6.2810601191      -15.1066625935
 C        14.4880787365       -5.5549414249      -13.1485695159
 C        13.0254982084       -5.0066914824      -13.5082115367
 O        11.9942572201       -5.4333182384      -13.0340302798
 C        13.2000324212       -4.0007509023      -14.6358026384
 C        12.5017834911       -4.6178747164      -15.8706226895
 C        11.0131660767       -4.2289103351      -16.0291700323
 O        10.5105693761       -3.4797605293      -15.1980667071
 C        10.2670938216       -4.6142770621      -17.3706379100
 C         8.8336292095       -5.1608829809      -17.0527624402
 O         8.5412249974       -6.3387867318      -17.3069550977
 C         7.6931598661       -4.1994135500      -16.5771909620
 C         6.6378222396       -5.0072951914      -15.6146286537
 C         7.3519123948       -5.2418121913      -14.2060453722
 O         8.5803306402       -5.2944099784      -14.1824752933
 C         6.5095152070       -5.4902958568      -12.8906582684
 C         6.8991238144       -4.3264371837      -11.9253218587
 O         8.0144664963       -3.8337281214      -11.8220266224
 C         5.8882837544       -3.8755901237      -10.9223646784
 C         5.4929152392       -2.4238660706      -10.7166917231
 C         4.9782884709       -1.5754222887      -11.9065455459
 O         4.8481597786       -1.9728524802      -13.0658217344
 C         4.3939835473       -0.2458427014      -11.4337631398
 C         3.1692869713       -0.5348218785      -10.6740809914
 O         3.2682872425       -1.2045939164       -9.6794479756
 C         1.8586535313       -0.1200433227      -11.2183800912
 C         0.5743114973       -0.6909923034      -10.4101187137
 C        -0.3387609548       -1.4560155295      -11.3934272566
 O         0.0450610772       -1.5759625927      -12.5365858646
 C        -1.8179314252       -1.8441117998      -10.8900845186
 C        -2.7242569247       -0.5413468422      -10.8689471528
 O        -2.5471833400        0.2843843200       -9.9931546989
 C        -3.8059031246       -0.3338558706      -11.8881832573
 C        -4.5275325052        0.9619501203      -11.6163503453
 C        -5.4233793513        0.8398696321      -10.4368516483
 O        -5.7010403584       -0.2728638841       -9.9429351563
 C        -5.9729986086        2.0725099646       -9.6335568145
 C        -7.5132211390        1.5734678069       -9.3804387327
 O        -7.8363980460        1.2201327310       -8.2825725790
 C        -8.4715102567        2.0460704570      -10.4905490054
 C        -9.6875819814        1.1710100670      -10.6212412615
 C       -10.9142935969        1.9416526684      -11.1123834669
 O       -11.1849430320        2.9805020649      -10.5492163672
 C       -11.7582227652        1.4166783124      -12.4338768490
 C       -12.4502266419        0.0762122969      -11.9748120936
 O       -12.2725353907       -0.2335823547      -10.7542080448
 C       -13.1721691852       -0.6802743625      -13.0117842745
 C       -13.6332332829       -2.1229126548      -12.6302010308
 C       -12.3874320477       -2.9986407365      -12.4379382253
 O       -11.5385457255       -2.9137364734      -13.2959958665
 C       -12.4792102417       -3.9091509801      -11.2059288288
 C       -11.0733617124       -4.5437846858      -10.9548347788
 O       -10.8072129296       -5.7375051011      -11.1302625157
 C       -10.0638327595       -3.6195295867      -10.1837802156
 C        -9.6446079657       -4.2330724185       -8.8414232824
 C        -9.2840981792       -3.0099572189       -7.8923928226
 O        -9.4467289286       -1.8964155104       -8.3867228647
 C        -8.6508586585       -2.9914344029       -6.5044904524
 C       -10.0326720098       -2.8486884404       -5.5490970615
 O       -10.5792534719       -1.7812760321       -5.5779059103
 C       -10.5696429718       -4.1300393372       -4.8616578679
 C       -12.0786756361       -3.8950617182       -4.4377575240
 C       -12.8908502954       -3.9585475938       -5.7104212233
 O       -12.5247923845       -4.5140150787       -6.7133334920
 C       -14.3417300420       -3.1883775863       -5.7114223277
 C       -14.1502772535       -1.6220814751       -5.4557932203
 O       -13.8937990583       -1.1877525754       -4.3412965095
 C       -14.4720596510       -0.5971302068       -6.6148156427
 C       -14.1500787208        0.8855742545       -6.1450103760
 C       -12.6796385170        1.2618831836       -6.3282424845
 O       -12.0724074281        0.8450924630       -7.2563011529
 C       -12.0275585815        2.3265375911       -5.3488152444
 C       -10.7804048138        2.9321999151       -6.1704121854
 O        -9.8348443769        2.1965217690       -6.3737170086
 C       -10.7802760223        4.3511049799       -6.8531347510
 C        -9.7430257018        5.3570127625       -6.5521523213
 C        -9.7828855894        5.7989595122       -5.0270259422
 O       -10.2382006275        4.9818385210       -4.2253540550
 C        -9.2583071425        7.2139288682       -4.4860527579
 C        -7.7069681691        7.2302672987       -4.6279358594
 O        -7.2484317064        7.1154442609       -5.7324787854
 C        -6.6511121487        7.3935117367       -3.4922889474
 C        -9.8054309906        8.3176165775       -5.4539836732
 C        -9.9364824386        7.4339980540       -3.0517366132
 C       -13.0510634921        3.3402436588       -4.7777328570
 C       -11.3935631011        1.5151037446       -4.1717445933
 C       -15.0618690302       -3.5360105091       -7.0637740456
 C       -15.2610043235       -3.7243472211       -4.5072948171
 C        -7.9913329904       -4.3914250665       -6.0506833163
 C        -7.7396568782       -1.7976001843       -6.2189302064
 C       -13.0932399496       -3.4343437950       -9.8108414241
 C       -13.4685334637       -5.1497375676      -11.7112219531
 C       -12.9514799556        2.5707771560      -12.6724134501
 C       -10.6293477085        1.2595781740      -13.5186087401
 C        -5.2316396946        2.1359075654       -8.3088308247
 C        -5.9024398062        3.4709790196      -10.3329105974
 C        -2.5256209817       -2.9293966412      -11.7211949753
 C        -1.8742271891       -2.2617031821       -9.3552526091
 C         5.3670252422        0.4966552728      -10.5177104133
 C         4.2399069098        0.6674035183      -12.7396782983
 C         5.0118609168       -5.4038571793      -13.2557773238
 C         6.7744836378       -6.8714714374      -12.1162745377
 C        10.2508713205       -3.2292639045      -18.1040001984
 C        11.0239243337       -5.5702983821      -18.3880397157
 C        14.4834062560       -6.3780841573      -11.7792275396
 C        15.6090227907       -4.5238894406      -13.1278557103
 H        14.6202479082       -8.4753280774      -13.4738538572
 H        14.2117535935       -8.1735385623      -15.2836331677
 H        13.1307975644       -7.8556248839      -13.9802984149
 H        14.2142414693       -3.8155131394      -14.9443415566
 H        12.8057010567       -2.9644963699      -14.3724443875
 H        12.5642635449       -5.6663604318      -16.0527619457
 H        13.0560998102       -4.1269716327      -16.7144680828
 H         7.1251242988       -3.9450744380      -17.4308775465
 H         7.9758303013       -3.2901839166      -15.9230570496
 H         6.3707429160       -5.9324145965      -16.0285433132
 H         5.6954346690       -4.4014860840      -15.6258234590
 H         6.2348009590       -4.2012868840       -9.9507512126
 H         4.9901528385       -4.4932386285      -11.0023577701
 H         6.4873422903       -1.9663443908      -10.4086458505
 H         4.8455284417       -2.3537682443       -9.8216071225
 H         1.8659772989       -0.5656123823      -12.2093076484
 H         1.6453406292        0.9972835693      -11.4076937223
 H        -0.0553665616        0.0910369445       -9.9688782946
 H         0.9211278920       -1.3233272924       -9.5075791261
 H        -4.5580929047       -1.1076890593      -11.6568311786
 H        -3.5730085156       -0.4776075977      -12.9290130907
 H        -5.0678885040        1.5838009112      -12.3388385774
 H        -3.8398246505        1.7066601807      -11.1600396176
 H        -8.0136463785        2.0835458448      -11.4769222386
 H        -8.8340482235        3.0545194334      -10.2608684546
 H       -10.0799115996        0.8355867311       -9.5481909271
 H        -9.4425184943        0.2729968504      -11.1028614632
 H       -12.4546071855       -0.7085781997      -13.8881686460
 H       -14.1029016401       -0.1982993099      -13.3073167361
 H       -14.2099645482       -2.6111054586      -13.4331250498
 H       -14.2785546710       -2.0764127903      -11.7436067332
 H       -10.4155577970       -2.6499859077       -9.9662625428
 H        -9.2426432906       -3.5594786842      -10.9025396452
 H        -8.8326218482       -4.8868312838       -8.9729970228
 H       -10.5089374973       -4.6460104954       -8.2719788139
 H       -10.0358966877       -4.2789173459       -3.9045744604
 H       -10.5118280537       -5.0227444188       -5.4967795903
 H       -12.4042361846       -2.9008743703       -4.1537690100
 H       -12.4998254767       -4.4822966344       -3.6735242992
 H       -15.4791076199       -0.6815848598       -6.9361862455
 H       -13.8010318345       -0.7626262267       -7.4470150375
 H       -14.4971893686        1.0500836666       -5.1438699161
 H       -14.6907811165        1.6480341659       -6.7235142027
 H       -11.7946585739        4.6798864844       -6.5796565604
 H       -10.6618439992        4.0074010309       -7.9601852521
 H        -9.8126219674        6.2063469764       -7.1854629879
 H        -8.8163193545        4.9541566963       -6.7553896131
 H        -6.4599194103        6.4191233964       -3.1557868207
 H        -6.9170733036        8.0674423232       -2.6469796496
 H        -5.6711726970        7.5497170687       -3.9716242290
 H       -10.8458160651        8.0613799112       -5.6249048081
 H        -9.2127838776        8.4281652243       -6.3215451657
 H        -9.7758810449        9.3195504494       -4.9983283244
 H       -10.5780209018        8.3428582039       -3.0201381950
 H        -9.1513542323        7.5689885010       -2.2278014982
 H       -10.5690589565        6.5072990116       -3.0143837682
 H       -12.6905196870        4.1111552458       -4.1149367478
 H       -13.7840365382        2.7027137661       -4.2341288655
 H       -13.6315909788        3.6959272471       -5.7004883536
 H       -10.7347471660        2.2086447322       -3.6106649788
 H       -10.7347925871        0.7605008368       -4.5592361804
 H       -12.1651234970        1.1100765278       -3.5668329415
 H       -16.1371092470       -3.4007133348       -6.9541089513
 H       -14.9327391176       -4.6360259589       -7.1929015832
 H       -14.5224422317       -3.0633230028       -7.8863593177
 H       -15.3834171263       -4.7731206143       -4.4972836898
 H       -16.2681079487       -3.2720386101       -4.5559989482
 H       -14.9742448332       -3.3934313052       -3.5290072390
 H        -6.8975452648       -4.3353900693       -6.1890974370
 H        -8.3923799382       -5.1620017486       -6.7200620984
 H        -8.1591033534       -4.6812235909       -4.9908793439
 H        -8.0712457001       -0.8859123576       -6.6475787773
 H        -6.7780794234       -2.0174620578       -6.6519957412
 H        -7.7124911071       -1.7140838344       -5.1736747402
 H       -12.7659173342       -2.5648307102       -9.3552826015
 H       -12.8977002111       -4.3123383717       -9.1443465687
 H       -14.1623208029       -3.2797111396       -9.8872870807
 H       -14.4657461652       -4.8012775579      -11.7989395927
 H       -13.4232577144       -5.8120872941      -10.7973590148
 H       -13.0638855981       -5.5976837153      -12.6303465421
 H       -12.5985702958        3.4538542565      -12.1600955478
 H       -13.9184431373        2.3110625494      -12.3422038303
 H       -13.0741657696        2.8490615458      -13.7421637863
 H       -10.9807937626        0.9481029190      -14.5329914631
 H        -9.9069292536        0.6039127720      -13.1322046565
 H       -10.1360368809        2.2657529479      -13.6733552371
 H        -4.7914655395        1.1884193056       -8.1296375199
 H        -5.8957388969        2.4212515707       -7.4793311232
 H        -4.4412288214        2.8784920520       -8.2516693634
 H        -4.9005159832        3.8921123906      -10.2158377322
 H        -6.4513932713        4.1888733565       -9.8436817089
 H        -6.1315738151        3.4869557591      -11.4092285322
 H        -3.5764276714       -2.8732215200      -11.7098774177
 H        -2.2690347024       -3.9359492635      -11.3609327433
 H        -2.2111242981       -2.8478606817      -12.7813237237
 H        -2.6302459455       -3.0159492231       -9.1559106768
 H        -2.0396880340       -1.3363155203       -8.8159457470
 H        -1.0033614951       -2.7268741112       -9.0364835204
 H         5.5149479225        0.0440886712       -9.5510469024
 H         4.9042265407        1.4687729374      -10.2076888923
 H         6.3876962575        0.6969588480      -10.9508490162
 H         3.9470301731        0.0536327039      -13.6539348361
 H         5.2494716873        1.0079439365      -12.7879724112
 H         3.5379750355        1.4661690866      -12.5259827261
 H         4.4760573771       -5.7316613034      -12.3784685312
 H         4.7499145819       -6.1296705059      -14.0730894204
 H         4.5922103048       -4.4989595700      -13.6166851294
 H         7.8116436247       -7.0831112901      -12.0393463031
 H         6.3152456906       -7.6505214362      -12.7574794576
 H         6.3786067289       -6.7556654154      -11.0825257109
 H        11.1766056194       -2.9352653776      -18.3175554818
 H         9.8633084066       -2.4988894671      -17.4095291264
 H         9.8238329854       -3.3285554705      -19.1098640166
 H        11.4208822006       -6.5226012904      -18.0422088385
 H        11.8061860633       -5.1103880655      -18.9008422993
 H        10.2828821647       -5.7844909398      -19.1983103008
 H        15.4331440980       -6.9108773892      -11.7004180520
 H        13.7434180498       -7.0963994176      -11.6411235202
 H        14.2093982457       -5.7232022548      -10.9869393503
 H        16.3835892521       -5.0145792815      -12.5450534848
 H        15.2827580463       -3.6460139344      -12.6442972798
 H        16.0018860115       -4.3946928410      -14.1297838406
 Na       -9.8582971409        0.0997727002       -7.1408452000
 Na       10.1321256255       -4.0848948089      -12.8673727576
