232

 C        14.1037018662       -8.0636943419      -14.2358712612
 C        14.8372364822       -6.6757081952      -14.3968711701
 O        15.6716942259       -6.3367688399      -15.2083768711
 C        14.6122607302       -5.6224879929      -13.1370191729
 C        13.2506388556       -5.0695418476      -13.5833713075
 O        12.1789450629       -5.5807766376      -13.2109462564
 C        13.1846199961       -3.9829215985      -14.6448534722
 C        12.5446534149       -4.6318378508      -15.9611641617
 C        11.0209088136       -4.1687288829      -16.1294405324
 O        10.5458452570       -3.3315066071      -15.3400629769
 C        10.2673380570       -4.5438920563      -17.4166682199
 C         8.8176751910       -5.1462922736      -17.0847290581
 O         8.5724548583       -6.2805027085      -17.2218577370
 C         7.6501233522       -4.1855500808      -16.6119255256
 C         6.6890254432       -4.9434901941      -15.6036038988
 C         7.2780747173       -5.2162520788      -14.2814634624
 O         8.5089786271       -5.1865618606      -14.1110088072
 C         6.4212665486       -5.4276796535      -12.8813249554
 C         6.8743558738       -4.2165412868      -11.9307526269
 O         7.9902306076       -3.7403916693      -11.9712042207
 C         5.9078785791       -3.8303193950      -10.7367909481
 C         5.7240354080       -2.2911507590      -10.7711881568
 C         5.0056115597       -1.5614973541      -11.9377536952
 O         4.9673727844       -1.9776314366      -13.0918281853
 C         4.4676985762       -0.1141022400      -11.4844004251
 C         3.1488125750       -0.5716908087      -10.6982165733
 O         3.2089082539       -1.1662809489       -9.6190991078
 C         1.7308938501       -0.0822900093      -11.1811650328
 C         0.6180400274       -0.7800050282      -10.3494068837
 C        -0.3697013423       -1.3839701809      -11.2221643635
 O        -0.2079959367       -1.6593133025      -12.4296711402
 C        -1.7955818580       -1.8246125331      -10.7774924634
 C        -2.6706074659       -0.5124229227      -10.8997603675
 O        -2.4255906345        0.3658481893      -10.0211158866
 C        -3.7593458440       -0.3208688730      -11.9077969842
 C        -4.5704086969        0.9600024561      -11.6846849003
 C        -5.4312798616        0.7356889273      -10.3496536512
 O        -5.7447120070       -0.3734434827      -10.0463167156
 C        -6.0284115464        2.0238030727       -9.5435121955
 C        -7.5691454430        1.7408514827       -9.2532004647
 O        -7.9183485819        1.0748726153       -8.3192004826
 C        -8.4717128170        2.0733937603      -10.3893907736
 C        -9.7019001160        1.1534529200      -10.5345428370
 C       -10.8455306023        1.9575443292      -11.0738407012
 O       -11.1885224479        3.0064913446      -10.5326328412
 C       -11.6402018388        1.4961366358      -12.3200093099
 C       -12.3384830396        0.1401118174      -11.9419686408
 O       -12.3278690923       -0.3036686104      -10.8306102719
 C       -13.2133169823       -0.5641847141      -13.0418503818
 C       -13.6675222345       -2.0300919291      -12.6645111408
 C       -12.4093104828       -2.9979044851      -12.4866129217
 O       -11.4777336440       -2.9194688135      -13.2198512463
 C       -12.4979722885       -4.0800844245      -11.2639386930
 C       -11.0952968694       -4.6933809434      -10.8885638587
 O       -10.7585158900       -5.7925735913      -11.2883605785
 C       -10.0072253638       -3.8152856363      -10.1362926004
 C        -9.6720419508       -4.1795425951       -8.7090173410
 C        -9.3222814725       -2.9225825256       -7.9351064892
 O        -9.5860758769       -1.8255648926       -8.4170127950
 C        -8.7507244745       -3.0619217106       -6.3797427187
 C       -10.0855208598       -2.9153267107       -5.5708966353
 O       -10.6688213487       -1.8346549455       -5.6594091419
 C       -10.5241424655       -3.9876536846       -4.6769756780
 C       -12.0522390676       -3.8252322128       -4.4388393063
 C       -12.9210096460       -3.8807759472       -5.7101995461
 O       -12.6207237941       -4.4618707343       -6.7017829225
 C       -14.3756639843       -3.2122029859       -5.6955991881
 C       -14.1873582558       -1.6145819151       -5.4258790385
 O       -13.7850139959       -1.2417416195       -4.3382039463
 C       -14.4420585259       -0.6161123350       -6.5218264387
 C       -14.0810031959        0.8600754658       -6.2507137092
 C       -12.5927946424        1.2072542678       -6.3461216289
 O       -11.9446984609        0.7434158779       -7.3402066425
 C       -11.9475434969        2.2473867729       -5.3413840983
 C       -10.7851738021        2.9137422779       -6.1470499261
 O        -9.8278223429        2.2225066788       -6.3628980759
 C       -10.8840048317        4.3095882438       -6.8535832497
 C        -9.7937293663        5.4012738281       -6.4734716643
 C        -9.7229528897        5.7472785304       -4.9724075641
 O        -9.9382469338        4.8756400782       -4.1628534207
 C        -9.3768033199        7.2101425914       -4.5286764624
 C        -7.7343089964        7.2784240010       -4.6280239423
 O        -7.3354999464        7.1352741996       -5.7692512291
 C        -6.6751880844        7.4594801596       -3.4804020301
 C        -9.9315102869        8.3223293652       -5.4446542253
 C        -9.8955566480        7.4042361166       -3.0788102023
 C       -12.9466332059        3.3949260850       -4.9610911639
 C       -11.5468603779        1.5211675621       -4.0559333614
 C       -15.0864715885       -3.5648510847       -7.0059850847
 C       -15.2188428962       -3.7823444142       -4.6004568349
 C        -8.0266811037       -4.3575896024       -5.9727084496
 C        -7.7360189904       -1.9544846331       -6.1609881559
 C       -12.9507223769       -3.3860196777      -10.0102970901
 C       -13.5761587608       -5.1495068919      -11.5567793901
 C       -12.7088436635        2.5539763413      -12.6708016399
 C       -10.8606299058        1.3250284316      -13.5497907483
 C        -5.2789162429        2.2754699392       -8.2015268754
 C        -5.9319604768        3.2838595642      -10.3997616602
 C        -2.3267082088       -3.0131860529      -11.6969385891
 C        -1.7879797909       -2.3262236809       -9.2949516060
 C         5.5389333747        0.5718674099      -10.5817635671
 C         3.9914357374        0.8090045168      -12.7168847247
 C         4.8981888261       -5.4953417593      -13.0708439645
 C         6.8850606126       -6.6409616389      -12.1293080021
 C        10.1132761939       -3.2108894125      -18.2091237826
 C        10.8712916778       -5.6039808873      -18.2860618666
 C        14.5696018926       -6.4405876771      -11.8511065080
 C        15.6759454941       -4.5673108716      -13.1427836547
 H        14.6346066488       -8.5705459402      -13.4461974601
 H        14.1787149624       -8.4364457825      -15.2005667007
 H        13.0985027728       -8.0185254930      -13.9345453637
 H        14.0857632506       -3.4199477168      -14.8677641767
 H        12.4974811924       -3.2108846683      -14.2819527350
 H        12.4311077302       -5.7828180610      -15.9762612873
 H        13.1128166284       -4.3491455425      -16.8267951632
 H         6.9523955709       -3.9259111866      -17.4434259968
 H         8.0015446550       -3.4045658196      -16.1109627280
 H         6.5777388465       -5.9663305858      -16.0424741375
 H         5.7647443894       -4.5524323207      -15.6381856130
 H         6.1934160538       -4.1781388713       -9.7629980807
 H         4.9324851712       -4.2715273958      -10.8006948511
 H         6.6634504018       -1.8379919080      -10.5528916773
 H         5.0378312665       -2.0228365018       -9.8879247481
 H         1.5745435402       -0.5030769471      -12.2316667339
 H         1.4972505416        0.9513049150      -11.2232868701
 H         0.0805927893       -0.1716005574       -9.5840551785
 H         1.0651895024       -1.5889317513       -9.7755246672
 H        -4.4458511056       -1.1031346710      -11.9634179987
 H        -3.2883774980       -0.2361122933      -12.8936459261
 H        -5.2882577065        1.2095519630      -12.4117711905
 H        -3.9828827131        1.8833833300      -11.5734771605
 H        -7.9195578319        2.1158522026      -11.3933826606
 H        -9.0774027052        3.0836737264      -10.3052024639
 H       -10.0099345016        0.7313636089       -9.5492085520
 H        -9.5319124959        0.2677065095      -11.2040833006
 H       -12.6255280855       -0.7026532886      -14.0074934004
 H       -14.1289058626       -0.0373236103      -13.2741767086
 H       -14.3578011062       -2.4965667589      -13.4157390477
 H       -14.2211833269       -2.0120992584      -11.7569170737
 H       -10.2439117633       -2.7318924149      -10.1505137735
 H        -9.1869394688       -4.0057447027      -10.7858840825
 H        -8.7835057364       -4.8342390027       -8.7129938905
 H       -10.5291980654       -4.5606922436       -8.1043493750
 H       -10.0580361185       -3.7713357130       -3.7326231921
 H       -10.4023391482       -5.0764543461       -4.9304849534
 H       -12.5863788501       -3.0562311707       -3.8793529358
 H       -12.4167249258       -4.7457581896       -3.9139894398
 H       -15.5850006033       -0.6185145321       -6.7281668801
 H       -13.9514377372       -0.8675952280       -7.4669782978
 H       -14.3829930136        1.1077336133       -5.2505048120
 H       -14.6761626337        1.4869659049       -6.8549909277
 H       -11.8551896854        4.6573770703       -6.6581010006
 H       -10.6891604183        4.0933990842       -7.9531199233
 H        -9.9520631613        6.2865023305       -7.0952683346
 H        -8.7983906263        5.1196674002       -6.7669848246
 H        -6.2798525356        6.5278112659       -3.0847012074
 H        -7.1775233813        8.1112620350       -2.7655360392
 H        -5.7605904180        7.8255180093       -3.8766185436
 H       -10.9546985573        8.3896711193       -5.3363269939
 H        -9.4993284174        8.2364125332       -6.4349981391
 H        -9.5115319371        9.3201816036       -5.1691887870
 H       -10.7988179193        8.1028378565       -3.1618533556
 H        -9.1351496465        8.0295416710       -2.5849926858
 H       -10.1685239827        6.4222795167       -2.6212327994
 H       -12.4750807958        4.1005528717       -4.3067508133
 H       -13.7829405848        2.9990344673       -4.4176721603
 H       -13.3388019416        3.8445157754       -5.8800328357
 H       -11.5166968938        2.2667921243       -3.2053304304
 H       -10.5733096634        1.1143676813       -4.1481399225
 H       -12.3056774334        0.7540422558       -3.8497169646
 H       -16.1786850947       -3.5056921337       -6.9103805611
 H       -14.8077425929       -4.5602608048       -7.2130290699
 H       -14.5724962749       -2.9706047504       -7.7816525010
 H       -15.4372325799       -4.7879107099       -4.7655680348
 H       -16.1340466080       -3.3129504126       -4.4383669295
 H       -14.7133225725       -3.7314457991       -3.6555631037
 H        -7.0040711666       -4.4114550642       -6.4508188785
 H        -8.6291954517       -5.3138502412       -6.3258904699
 H        -7.8761458075       -4.3476002645       -4.9005651001
 H        -7.9277900134       -1.1528443282       -6.8992154251
 H        -6.7979932873       -2.3018076111       -6.3380083812
 H        -7.9021200798       -1.5819567232       -5.2191868270
 H       -12.0802601139       -3.0208729107       -9.4192305041
 H       -13.5083445778       -4.0534723829       -9.3373722157
 H       -13.4595557163       -2.4171030122      -10.1105153983
 H       -14.4631923173       -4.5334079662      -11.7177467391
 H       -13.7802048851       -5.6363667759      -10.5850185053
 H       -13.3686448524       -5.7631437294      -12.4884934146
 H       -12.6780753926        3.3355584791      -11.9970414327
 H       -13.7197312643        2.1701385827      -12.7572796434
 H       -12.5379248680        2.9393881969      -13.6465768235
 H       -11.4703516227        1.0589310643      -14.3614334740
 H       -10.0296772183        0.5785544891      -13.3764695078
 H       -10.4104461222        2.2669459174      -13.8033586869
 H        -4.7552498533        1.3647462422       -7.9102583057
 H        -5.8763036885        2.7191846850       -7.3738577081
 H        -4.4623117582        3.0100513165       -8.3221494683
 H        -4.9260887302        3.6312135412      -10.2920401519
 H        -6.4823778836        4.1389274670       -9.8990791959
 H        -6.1158607769        3.3002546079      -11.4615092311
 H        -3.4071058252       -3.1562745374      -11.7764710636
 H        -1.9472024284       -3.9411331864      -11.3539457105
 H        -1.9572336723       -2.8121784601      -12.7095037674
 H        -2.5643313978       -3.0360925831       -9.1429023962
 H        -1.8411300635       -1.5616835344       -8.5557968621
 H        -0.8940259840       -2.8681682359       -9.2328537118
 H         5.6456698046        0.0919597751       -9.5464438719
 H         5.2355620064        1.5169617480      -10.3727698227
 H         6.5161043727        0.6652488179      -11.0001985634
 H         3.4771591053        0.1048466844      -13.3577479037
 H         4.8474866581        1.3032933833      -13.1414032297
 H         3.2438470621        1.4851936960      -12.2906382757
 H         4.2773835971       -5.5715769320      -12.2442711169
 H         4.6453727940       -6.3405387131      -13.6993161880
 H         4.5516916544       -4.6011369060      -13.7161732697
 H         7.9632646775       -6.9022219146      -12.3648850871
 H         6.2381490756       -7.4278057792      -12.4322501975
 H         6.8917902315       -6.4065010959      -11.0294945463
 H        11.0845302296       -2.9184191424      -18.7046245043
 H         9.8039125329       -2.4133148322      -17.5521756222
 H         9.4789318301       -3.4738704778      -18.9887606826
 H        10.7723829252       -6.6053515999      -17.8631159367
 H        11.9344606052       -5.4485401134      -18.5200159843
 H        10.3837433828       -5.5919495467      -19.2674748648
 H        15.4017698416       -7.0637237684      -11.7952975082
 H        13.7194051196       -7.0347109262      -11.7718025022
 H        14.4443966938       -5.7626388512      -11.0162701766
 H        16.5501976862       -5.0519722767      -12.7377253173
 H        15.3504099246       -3.6514808314      -12.5833832172
 H        15.8571856984       -4.3495524438      -14.2421066059
 Na       -9.9046339684        0.0205366326       -7.1691689361
 Na       10.0829485062       -4.0999885583      -12.8688358254
