232

 C        14.6348236684       -8.4656012254      -14.4310874135
 C        14.5021517387       -6.9742376153      -14.8668460916
 O        14.4813975236       -6.6765746863      -16.0066387775
 C        14.4915306683       -5.8948726050      -13.7424229595
 C        13.1182690264       -5.0901092068      -13.8782910172
 O        12.1731067685       -5.1031876362      -13.1348283124
 C        13.1124634914       -4.2570810882      -15.1717347526
 C        12.1767712221       -4.9033364341      -16.2801360274
 C        10.8993446975       -4.1218022510      -16.4443078330
 O        10.5455796368       -3.3485159373      -15.5391433340
 C        10.0126497144       -4.4111227910      -17.6744259617
 C         8.4897984045       -5.0016591198      -17.0889780111
 O         8.3286158077       -6.1826567104      -17.1140771815
 C         7.5718699539       -3.9128018386      -16.5153868823
 C         6.7314192500       -4.4316323555      -15.3896942017
 C         7.4681189875       -5.0158433164      -14.2006225450
 O         8.5289445406       -5.5850774908      -14.3441095362
 C         6.8387067173       -4.8809764371      -12.6667204811
 C         7.3955674772       -3.5955061517      -11.9086610960
 O         8.4703717238       -3.0630104150      -12.1850737463
 C         6.6275224806       -2.9465665405      -10.6430747547
 C         6.2612893513       -1.4267128828      -10.7997411754
 C         5.3250494128       -1.1282933993      -11.8561091312
 O         5.4399385994       -1.6134821834      -12.9844958851
 C         4.4619741037        0.1128836822      -11.5683151821
 C         3.2744927525       -0.3470943639      -10.6692269077
 O         3.6353991028       -0.6817801823       -9.5506293302
 C         1.7981355523       -0.2180366250      -11.1655465068
 C         0.7997713333       -0.9290915295      -10.2036448171
 C        -0.2378872620       -1.6509058491      -11.0129179026
 O        -0.1271232343       -1.6826723435      -12.2141886456
 C        -1.6439981865       -2.0648243973      -10.3080357148
 C        -2.5031928788       -0.7541828815      -10.4626553670
 O        -2.3234710290        0.1677609399       -9.6582915413
 C        -3.4214322167       -0.4007993548      -11.6180218852
 C        -4.5811867867        0.6094291036      -11.4601864395
 C        -5.5359242318        0.4303344863      -10.1864138377
 O        -5.8339499952       -0.7118014840       -9.9554660104
 C        -6.1274053947        1.6318400968       -9.4292393388
 C        -7.6877483227        1.3181126688       -9.2362078798
 O        -7.8518465579        0.4664831206       -8.4429576715
 C        -8.8414986037        2.1538570941       -9.7222614902
 C       -10.0104847982        1.2907659500      -10.3239290476
 C       -11.0666577327        2.1195037352      -10.9720388151
 O       -11.5802424043        3.1137545712      -10.4805078233
 C       -11.7512321173        1.5989492360      -12.3229024709
 C       -12.3630937391        0.1322915451      -11.9864888016
 O       -12.6537842109       -0.2586224524      -10.8951373941
 C       -12.7658996408       -0.5701234404      -13.2009641959
 C       -13.2330800981       -2.0699396258      -12.9605825604
 C       -12.0997023243       -2.8083117077      -12.2354220392
 O       -10.9797137315       -2.3565252637      -12.3180358582
 C       -12.4097148653       -4.0014693127      -11.1686621615
 C       -11.0469049376       -4.9180801804      -11.0639500992
 O       -11.0309838007       -6.0849567525      -11.3456014159
 C        -9.8598049123       -4.1570494709      -10.3703207252
 C        -9.5559007320       -4.4859103428       -8.9724182964
 C        -9.5881883710       -3.2574924398       -8.0134691602
 O       -10.0200221004       -2.1757213174       -8.3954273478
 C        -8.9029281247       -3.4205110729       -6.5617124311
 C        -9.9104478407       -3.0041550036       -5.4675637963
 O       -10.1307421407       -1.8210996997       -5.4115275993
 C       -10.5942390917       -3.8432514862       -4.4094100086
 C       -12.0204595923       -3.3725694313       -4.1879522466
 C       -12.9311378616       -3.3819632743       -5.5129874745
 O       -12.4664395217       -3.7367522596       -6.5659919167
 C       -14.4428408371       -2.9858163260       -5.3980395435
 C       -14.3857532735       -1.3359653637       -5.4054333784
 O       -14.1308010275       -0.7941418471       -4.3609956558
 C       -14.4570127111       -0.6157035275       -6.7625553921
 C       -14.2496426883        0.8759600668       -6.4921608712
 C       -12.7875043116        1.1790082706       -6.4269686037
 O       -12.0351230058        0.5205288816       -7.1898020265
 C       -12.0994964222        2.2085979920       -5.4854626857
 C       -10.8968625691        2.8370199559       -6.3089360558
 O        -9.9444341652        2.0565602586       -6.4864938833
 C       -10.7759264931        4.2449901077       -6.8752191063
 C        -9.5014816230        4.8662984559       -6.3963191737
 C        -9.4921964051        5.3018483753       -4.8907403027
 O        -9.7820006965        4.4589619605       -4.1083533018
 C        -9.4208188302        6.7576084180       -4.4860211302
 C        -8.0360662053        7.4521015431       -4.9088323593
 O        -7.7431704757        7.5144629307       -6.0933317340
 C        -7.1597547883        8.1364347233       -3.8656838073
 C       -10.5633220526        7.5519258001       -5.1918313572
 C        -9.5792047206        6.8518299768       -2.9390756502
 C       -13.0813265762        3.3538289603       -5.1725366029
 C       -11.5252131042        1.5742292515       -4.1782190857
 C       -15.3156589711       -3.6016741032       -6.5475150796
 C       -15.1121936473       -3.5096220478       -4.0513288846
 C        -8.4129927929       -4.8885809095       -6.2736247802
 C        -7.6550579961       -2.4773422270       -6.3897183714
 C       -12.8822341927       -3.3808581163       -9.8135909887
 C       -13.5432398838       -4.9468616093      -11.6872606710
 C       -12.9143304530        2.5393181738      -12.6731082764
 C       -10.7196128150        1.6220537746      -13.4332470733
 C        -5.5061397984        1.8419777207       -7.9799443400
 C        -5.8946860965        2.9983507408      -10.1680234286
 C        -2.3539794228       -3.2751503879      -10.9542148195
 C        -1.4823915814       -2.2493896193       -8.8357108151
 C         5.3512846399        1.1460772539      -10.8827424155
 C         3.9004406222        0.5561194316      -12.9759014150
 C         5.2672789721       -4.9586181985      -12.6539619441
 C         7.2512394238       -6.1292236726      -11.8413731920
 C         9.8453149612       -3.0528473259      -18.4962687999
 C        10.5928437504       -5.5035162874      -18.6629821704
 C        14.3682187978       -6.6113360800      -12.3008827675
 C        15.8055793778       -5.0022106783      -13.8968401408
 H        15.6733379396       -8.4931890735      -13.9390790791
 H        14.8028598563       -9.1646406906      -15.2735637854
 H        13.7787971534       -8.5681180021      -13.6916220068
 H        14.0610597254       -4.2576682558      -15.6418793230
 H        12.8320560344       -3.1996304770      -14.9964368609
 H        12.0129170698       -5.9624618235      -16.1491621008
 H        12.8448517790       -4.7803777622      -17.1212016454
 H         6.7928973611       -3.6441300098      -17.3827294516
 H         8.1460510925       -3.0863697123      -16.2866759275
 H         6.0031235893       -5.2428587840      -15.8465139893
 H         6.1579779773       -3.6644633643      -14.9706650228
 H         7.2571038453       -3.1341022189       -9.7409656529
 H         5.6120523111       -3.4132313014      -10.4836578996
 H         7.0871278489       -0.7492369315      -10.9576555432
 H         5.8878102838       -1.0468695040       -9.8677476362
 H         1.6587010512       -0.8100871980      -12.0252073097
 H         1.4523400088        0.8190206657      -11.3643295738
 H         0.3474123015       -0.2412505012       -9.5314566028
 H         1.3135023050       -1.6696978874       -9.5834867351
 H        -3.9526262346       -1.2796811856      -12.0071951154
 H        -2.7855228203        0.0403246216      -12.4479094656
 H        -5.2924369723        0.5458633651      -12.2957568290
 H        -4.1238901612        1.6325258235      -11.4466429042
 H        -8.5589971644        2.9065365235      -10.3936395623
 H        -9.1792076013        2.6620828293       -8.8904443742
 H       -10.3196113230        0.6961547487       -9.4558239248
 H        -9.5735343717        0.5859709055      -11.0225553175
 H       -11.9520249251       -0.5642355365      -13.9540880930
 H       -13.5367232306       -0.0806096825      -13.7218194919
 H       -13.3373341683       -2.6187379796      -13.9288279110
 H       -14.1825438012       -2.1973731055      -12.4941685219
 H       -10.0426071235       -3.0510939079      -10.3386026391
 H        -8.9278806110       -4.2893793744      -10.9633023935
 H        -8.5749277289       -4.8930109994       -8.8705199817
 H       -10.3348260243       -5.1832430030       -8.5449591166
 H       -10.0942291948       -3.9827976358       -3.4651674898
 H       -10.7253052083       -4.9098981010       -4.7254465705
 H       -12.1597800094       -2.3252575731       -3.9071996727
 H       -12.3952247499       -3.9246397125       -3.3118573417
 H       -15.3875197704       -0.8435940063       -7.2761358258
 H       -13.7022263833       -0.9956875880       -7.4136041750
 H       -14.8456413596        1.2205475722       -5.6101434164
 H       -14.6851320877        1.5272152845       -7.3192125805
 H       -11.6613615099        4.7765410795       -6.5978363682
 H       -10.9253509857        4.2089149697       -8.0372566289
 H        -9.2086501718        5.7815926719       -6.9848239886
 H        -8.7097734790        4.1309180722       -6.6264669312
 H        -7.5830750208        9.1463524933       -3.7364624508
 H        -6.0993785767        8.1782034384       -4.1828302039
 H        -7.3378079046        7.6426955407       -2.9286832925
 H       -11.4971418111        7.1466917875       -4.8965970187
 H       -10.5159118299        7.4339670647       -6.3131843330
 H       -10.5344494631        8.6528284451       -4.8337972630
 H       -10.6304639780        6.7591681261       -2.7185783335
 H        -9.1450412453        7.7258141503       -2.6495975578
 H        -9.0300411912        6.0777299529       -2.4803259734
 H       -12.6120774904        4.1177941694       -4.6180749430
 H       -13.8750130346        2.9240217003       -4.6346857867
 H       -13.5209342312        3.8490767258       -6.0151534193
 H       -10.9002874462        2.3369775793       -3.6254094775
 H       -11.1138792159        0.6224704906       -4.3942700512
 H       -12.3304100832        1.3844699095       -3.4470615617
 H       -16.3097769628       -3.2767192194       -6.2833245128
 H       -15.1469303576       -4.6273269714       -6.4703232513
 H       -15.1165975988       -3.1409650941       -7.5139591479
 H       -15.0766988619       -4.6140157970       -4.0576689979
 H       -16.1779079042       -3.2691594194       -4.0239951884
 H       -14.6689237588       -3.2220190007       -3.0529851525
 H        -7.4803015014       -5.1194468333       -6.7656160868
 H        -9.0948959981       -5.7559672824       -6.6115305138
 H        -8.1773637189       -5.0105274011       -5.2417342657
 H        -6.9423066629       -2.4636280927       -7.2949016420
 H        -7.1806220856       -2.7698856468       -5.4370558766
 H        -7.9821261517       -1.4192639093       -6.1642994268
 H       -13.1901098728       -2.3494664235      -10.0763980001
 H       -12.1445568216       -3.3980783782       -9.0355037586
 H       -13.7574758025       -3.8515167706       -9.3351411598
 H       -14.4613793166       -4.4232658853      -11.7303159826
 H       -13.5698151934       -5.7412452246      -10.9664724374
 H       -13.2671343106       -5.3647393202      -12.7046599688
 H       -13.1671351189        2.4357541573      -13.7079107757
 H       -12.8025696820        3.6326890300      -12.5201279623
 H       -13.7982110143        2.3169402492      -12.0659761491
 H       -10.9260160018        0.9864938263      -14.2480480644
 H        -9.7077675678        1.3369970006      -13.0562179746
 H       -10.6626196130        2.5964236236      -13.8813703300
 H        -5.2831074750        0.8642616382       -7.5575188067
 H        -6.2228250457        2.2444303503       -7.2134286058
 H        -4.5451837811        2.3891960447       -8.0118042483
 H        -4.8421760382        3.2616633146      -10.0812051598
 H        -6.4731165041        3.8591246793       -9.7083009943
 H        -6.1732373135        3.0339171591      -11.2501470569
 H        -3.3395631479       -2.9366283221      -11.2671561405
 H        -2.4261176543       -4.1799524514      -10.3631486417
 H        -1.8126071845       -3.4275057619      -11.9099161093
 H        -2.2002066722       -2.9528351830       -8.3156470083
 H        -1.3588612850       -1.2550201000       -8.3133780063
 H        -0.4223754160       -2.6269945909       -8.6867612346
 H         5.5696975745        0.7660159264       -9.7966814215
 H         4.7819638632        2.0082977873      -10.7778738012
 H         6.3452449088        1.3937658189      -11.3307062438
 H         3.3682839733       -0.3172751871      -13.3155389723
 H         4.7298896027        0.7683111031      -13.6072286864
 H         3.2463204148        1.4143630250      -12.8952394147
 H         4.8752729470       -5.1482713802      -11.6744369389
 H         4.9344890911       -5.7911916965      -13.2923733609
 H         4.7595532432       -3.9368221566      -12.9170672208
 H         8.3562808015       -6.3345091158      -11.8245982255
 H         6.7126092697       -6.9863208187      -12.1837101298
 H         6.8526097440       -6.0623571659      -10.7945798077
 H        10.8253368287       -3.0716047745      -19.0860469572
 H         9.9058474650       -2.2223427284      -17.7594828971
 H         8.8770194306       -2.9497062320      -18.8905074029
 H        10.2096295283       -6.4908514561      -18.4114286425
 H        11.6761561182       -5.4335737096      -18.7587244580
 H        10.1617284076       -5.3416146087      -19.6786930864
 H        15.2260535676       -7.2538882816      -12.1185103609
 H        13.4060373339       -7.1735074330      -12.2583745784
 H        14.6446883371       -5.8993343061      -11.4833897641
 H        16.6396259175       -5.6042171581      -13.5504953833
 H        15.6156898795       -4.0705577750      -13.3091941869
 H        15.8546379895       -4.5769493651      -14.9387178387
 Na       -9.8277012923       -0.2575323770       -7.1378334602
 Na       10.1892312679       -4.1105396827      -13.3606646846
