232

 C        14.7688768254       -8.5601678393      -14.6484250327
 C        14.3684931425       -7.0783948446      -14.8671375188
 O        14.0255341416       -6.7035998726      -16.0193434393
 C        14.4590772124       -6.0183375455      -13.7813966056
 C        13.1332970553       -5.1104517586      -14.0607864284
 O        12.1356296810       -5.1247391732      -13.3181851215
 C        13.0094833962       -4.2824502698      -15.3384576547
 C        12.0853714937       -4.9866677228      -16.3572684028
 C        10.8327328795       -4.2697171447      -16.5671902013
 O        10.3895923746       -3.5520517156      -15.6713287331
 C         9.9688516743       -4.4401845418      -17.8201021563
 C         8.5236125383       -4.8936011477      -17.1390745985
 O         8.0730907289       -5.9438129766      -17.4936364513
 C         7.7225156944       -3.8323800448      -16.2868219104
 C         6.7321743552       -4.5285848189      -15.3094669070
 C         7.4582635507       -4.8617901843      -13.9965237348
 O         8.6612218188       -5.1140053137      -14.0472392289
 C         6.8201819242       -4.7378842231      -12.5889102067
 C         7.5203094688       -3.4780546808      -11.8318568133
 O         8.6120878451       -3.0222291637      -12.1645918114
 C         6.7556549846       -2.8957022587      -10.6274041728
 C         6.5085943201       -1.4698689105      -10.8193700691
 C         5.5448516387       -1.0759822402      -11.9775913670
 O         5.4955453510       -1.7711072948      -12.9905024312
 C         4.6478862941        0.1412345117      -11.7631267877
 C         3.4406187594       -0.4167292548      -10.6891382751
 O         3.7670563789       -0.7127438307       -9.5601921347
 C         1.9152339796       -0.3392044229      -11.2454524287
 C         0.7455220961       -0.9086166944      -10.3037631253
 C        -0.3357182936       -1.6727585168      -10.9995491553
 O        -0.2322222870       -1.9949662911      -12.1860027079
 C        -1.6356671463       -1.9254230256      -10.2083426829
 C        -2.5576724734       -0.6984533207      -10.2026187654
 O        -2.6013496766        0.2290283631       -9.4457276414
 C        -3.4684484157       -0.6142270087      -11.4179433049
 C        -4.4974138753        0.6460147701      -11.2074741247
 C        -5.5877888502        0.3250176518      -10.2363092632
 O        -5.8550166000       -0.7735649237       -9.8455351360
 C        -6.2735332910        1.5468094762       -9.4438072316
 C        -7.6733463494        1.2330967350       -9.1848708314
 O        -7.9469764532        0.2516182607       -8.4434882195
 C        -8.8257197396        2.0666880346       -9.7587575591
 C        -9.9624736243        1.2100361747      -10.3554116118
 C       -11.1324017786        2.1284651302      -10.8557209025
 O       -11.3758483355        3.1149849678      -10.2136098141
 C       -11.8688527740        1.7881532183      -12.2516640699
 C       -12.4142659989        0.2876152898      -12.2009916397
 O       -12.6739351220       -0.1415596228      -11.0551215575
 C       -12.8898109026       -0.6762435449      -13.3067867701
 C       -13.1548555899       -2.1139061644      -12.9314912548
 C       -11.9637497206       -2.7692709003      -12.1560635025
 O       -10.8458030493       -2.3166875576      -12.2595221306
 C       -12.3481515584       -3.9055897869      -11.2804202110
 C       -11.0860726214       -4.6872825181      -10.8931400180
 O       -11.1243582856       -5.9111060555      -11.0220797067
 C        -9.7415166860       -4.1034161509      -10.3414250642
 C        -9.4480546529       -4.7056143226       -8.8466486671
 C        -9.5416496205       -3.5194317200       -7.8639117721
 O       -10.1337032629       -2.4850715301       -8.1184492469
 C        -8.8092217820       -3.6087860873       -6.5169851550
 C        -9.8126454841       -2.9785716785       -5.4710583388
 O        -9.8887974962       -1.7361735388       -5.2777226352
 C       -10.6468082424       -3.9293970156       -4.6469233742
 C       -11.9892790555       -3.2074645655       -4.2446219432
 C       -12.8802684232       -3.2706908824       -5.4519052306
 O       -12.5246329304       -3.6712872057       -6.5555558445
 C       -14.4009330169       -2.8358119455       -5.2729490949
 C       -14.4384191263       -1.2677949367       -5.2763084996
 O       -14.4022114422       -0.6302319788       -4.2253667258
 C       -14.7317209539       -0.5804228566       -6.6544603386
 C       -14.3369900990        0.9221635128       -6.5843435716
 C       -12.7785456926        1.0650837278       -6.5622713430
 O       -12.1438167046        0.2689071490       -7.1903562313
 C       -12.1273164426        2.2087067556       -5.6467004905
 C       -10.9022945079        2.6874232469       -6.4584214074
 O        -9.9770123348        1.9367785507       -6.6879715417
 C       -10.6904517432        4.1652353055       -6.9265889905
 C        -9.4396322540        4.9296884525       -6.3996869209
 C        -9.5467970156        5.2737574482       -4.9099431109
 O        -9.7112551281        4.3024402613       -4.1504026051
 C        -9.4868431108        6.7449512531       -4.4126795878
 C        -8.1410628052        7.4342646891       -4.9987868405
 O        -7.9624468300        7.4120599712       -6.1815529344
 C        -7.1765233776        8.2477779509       -4.0661470987
 C       -10.6960570891        7.5282098249       -4.9684090436
 C        -9.6251011718        6.7154477381       -2.8205076915
 C       -13.1786606867        3.2410213484       -5.2011103853
 C       -11.5907904392        1.4739163057       -4.4050926700
 C       -15.2348609145       -3.3313734295       -6.4546618175
 C       -14.8709606884       -3.1679569903       -3.9334531307
 C        -8.3828099626       -5.1055854188       -6.1746635981
 C        -7.5043208148       -2.7052220182       -6.6038405421
 C       -12.9854915413       -3.4048720864       -9.9105181288
 C       -13.3441350565       -4.8873458908      -11.9735659702
 C       -12.9843045353        2.6791415159      -12.6800486475
 C       -10.6104452729        1.7538010160      -13.1740125548
 C        -5.4763472819        1.6127997123       -7.9970167780
 C        -6.0732030567        2.9009782456      -10.1919040253
 C        -2.3046169474       -3.1777401057      -10.8294907091
 C        -1.2645986612       -2.3145030829       -8.7091319943
 C         5.3449787566        1.4445219609      -11.0598543409
 C         4.0819923094        0.6627802380      -13.0128141347
 C         5.3299286198       -4.6138151111      -12.6278550331
 C         7.4800199632       -5.8865982509      -11.7091344228
 C         9.7332076224       -2.9948828425      -18.4513232233
 C        10.3648997274       -5.4767301606      -18.9169148523
 C        14.3843816439       -6.4759902482      -12.2596034757
 C        15.8155094570       -5.1863917767      -13.9093145553
 H        15.8091308378       -8.6041554254      -14.5533069978
 H        14.6896219421       -9.0530798989      -15.6171277840
 H        14.1294011832       -8.9505693371      -13.9124426884
 H        14.0305255799       -4.1230502311      -15.8018080451
 H        12.5331457038       -3.3099660328      -15.1622245041
 H        11.6571020909       -5.9343545117      -15.9616384956
 H        12.7338447828       -5.3015421777      -17.2314490076
 H         7.1966443446       -3.1588476186      -16.8699964743
 H         8.5473147093       -3.1868466762      -15.8082713303
 H         6.4850240656       -5.4415320327      -15.7448375879
 H         5.7925616929       -3.9264637472      -15.1585891440
 H         7.4404771278       -2.9975619101       -9.7784893111
 H         5.8513271372       -3.4629665747      -10.5364753535
 H         7.5188980951       -0.9791307421      -10.9886974807
 H         6.2138257515       -1.0197762424       -9.8466559171
 H         1.7423875228       -0.8883771968      -12.2160251837
 H         1.7107544021        0.7057476404      -11.3594299165
 H         0.3199591466       -0.0512054408       -9.6995895141
 H         1.2023138364       -1.5865854124       -9.5436339599
 H        -4.1271904148       -1.4620270841      -11.6375319964
 H        -2.8460283503       -0.4261152519      -12.2622632580
 H        -5.0349141944        0.8496612593      -12.1729191900
 H        -3.9564382152        1.5272396629      -10.9099849537
 H        -8.4527608176        2.7008069653      -10.6060147141
 H        -9.2760778307        2.7946615630       -8.9793752218
 H       -10.3009448491        0.5606928603       -9.5186695804
 H        -9.5035570758        0.5607219165      -11.0955043671
 H       -12.3049452179       -0.7100769991      -14.2085896490
 H       -13.8950258648       -0.3415017959      -13.7490871042
 H       -13.4804891422       -2.6476610763      -13.8045862291
 H       -14.0051800529       -2.1809266489      -12.1959203137
 H        -9.5285251832       -3.0713749351      -10.2078248175
 H        -8.9681096170       -4.4551299428      -11.0184957658
 H        -8.3626947447       -4.9744870198       -8.7070409213
 H       -10.0230187240       -5.5617051168       -8.5502965263
 H       -10.0601699788       -4.2717260586       -3.7497427753
 H       -10.9072675520       -4.8653463365       -5.0983968912
 H       -12.0016138618       -2.2091824135       -3.7394061090
 H       -12.5020217283       -3.9194790180       -3.5542860744
 H       -15.7781307142       -0.7113658165       -6.8710705209
 H       -14.2290039775       -1.0129659156       -7.5502526822
 H       -14.7390257844        1.3035998592       -5.6592153602
 H       -14.8267641990        1.5299607083       -7.3189679287
 H       -11.6338676446        4.8026163675       -6.9846251012
 H       -10.4838831834        4.0254857368       -7.9580220637
 H        -9.1991420799        5.7391741140       -7.0271758550
 H        -8.6519518027        4.2182064761       -6.4333780653
 H        -7.0607977773        9.2359158236       -4.5040220716
 H        -6.2166038826        7.6681400218       -3.9864544668
 H        -7.5406984781        8.2809566279       -2.9901218527
 H       -11.7149795144        7.1344576417       -4.6930108417
 H       -10.7160208155        7.3611844591       -6.0119611006
 H       -10.5350104546        8.5173949196       -4.7202450085
 H       -10.3960608034        5.9991557345       -2.5210628283
 H        -9.8215947487        7.7905517211       -2.4450070065
 H        -8.6605001952        6.3809061259       -2.3569802371
 H       -12.6859758548        4.1412518699       -4.7637731554
 H       -13.8760073163        2.7607044031       -4.4575542954
 H       -13.8447667484        3.6646196296       -6.0015448778
 H       -11.4220932135        2.2140514212       -3.6697811018
 H       -10.6830779027        0.8759914261       -4.6418179130
 H       -12.3025946009        0.7743597293       -3.9972090968
 H       -16.2199418602       -2.8533771472       -6.5894530544
 H       -15.2630774312       -4.4327601453       -6.1808529693
 H       -14.5764370691       -3.1317500329       -7.3119308847
 H       -14.6593234633       -4.1954371541       -3.6200132722
 H       -15.9713849494       -2.9693682428       -3.7746758665
 H       -14.3717788850       -2.5414386443       -3.1892798558
 H        -7.5736166808       -5.5596729668       -6.7644425704
 H        -9.1943066345       -5.7622341189       -6.0744820288
 H        -7.9628211336       -5.1587075499       -5.1323039552
 H        -6.6512153419       -3.3399364697       -6.7917358965
 H        -7.4149449810       -2.1666235541       -5.6705971649
 H        -7.5323104602       -1.9794887435       -7.3548447526
 H       -12.7176032670       -2.4075781134       -9.7493206909
 H       -12.6807828511       -4.1246548889       -9.1346846651
 H       -14.0273056352       -3.4689051227       -9.8564078748
 H       -14.1481874748       -4.2436249518      -12.3277861415
 H       -13.6803098248       -5.7918714749      -11.4246229776
 H       -12.7728639136       -5.3230090384      -12.7584967694
 H       -12.9250991680        3.0316857895      -13.7453892188
 H       -13.0100555890        3.6072105947      -12.1259370949
 H       -13.9944542194        2.2544921187      -12.4839781097
 H       -11.0241683794        1.8126879312      -14.2337339240
 H       -10.0020998752        0.8978629434      -13.0831045004
 H       -10.0185582935        2.6905197064      -13.1194707733
 H        -5.3863550361        0.6557284431       -7.5051055971
 H        -5.9465949851        2.2146732352       -7.2842814566
 H        -4.4920780002        1.9531462185       -8.2308762904
 H        -4.9880247185        3.0884387035      -10.2227843205
 H        -6.4400165724        3.7447076076       -9.7024025080
 H        -6.4615692861        2.8676519713      -11.2001172375
 H        -3.1522529118       -3.5302531698      -10.2463895345
 H        -1.4375517334       -3.8690250285      -10.7752844293
 H        -2.5447763836       -3.0634891283      -11.8841279129
 H        -2.2260178388       -2.3096070941       -8.1951962343
 H        -0.5843137032       -1.6001011148       -8.2499844348
 H        -0.8622537987       -3.2885321262       -8.5160090665
 H         5.0930199805        1.6318435374      -10.0341421915
 H         4.9702368546        2.3780536893      -11.5953871670
 H         6.4317871852        1.3814459240      -11.1955186941
 H         3.4979924259       -0.1440699015      -13.5037667994
 H         4.8544263623        1.1019706341      -13.6710331419
 H         3.4294498040        1.4566621840      -12.6706272769
 H         4.9715342294       -4.7756075566      -11.5747253021
 H         4.8054400559       -5.2932292902      -13.3051706683
 H         5.0457716361       -3.6451587867      -12.8590568904
 H         8.3159734669       -6.3196361480      -12.1983878386
 H         6.8164275384       -6.7252693124      -11.3640965781
 H         7.7270401954       -5.4809174289      -10.7644210861
 H        10.6371906297       -2.7091945012      -18.7340675790
 H         9.2351927193       -2.3539946566      -17.7467596640
 H         9.0155047256       -3.2011496997      -19.2600128958
 H        10.2070906973       -6.4949604590      -18.5024020203
 H        11.3821138673       -5.2558234113      -19.1881632155
 H         9.7195309616       -5.3785031046      -19.7877655037
 H        15.2758374696       -6.9852028172      -11.8204726153
 H        13.4729816729       -7.0197919034      -12.1421406314
 H        14.3553978953       -5.5553537489      -11.6802020878
 H        16.6696019277       -5.8449522518      -13.6621728789
 H        15.7992184902       -4.3318955556      -13.2811107522
 H        15.9036525597       -4.8950544111      -14.9283241400
 Na       -9.8827979764       -0.3245119754       -7.2343943887
 Na       10.2770272453       -3.9036750162      -13.4611057345
