232

 C        15.1320026784       -8.7288645496      -14.3586372217
 C        14.4291816135       -7.3558543384      -14.9761704102
 O        13.9672760111       -7.2266654005      -16.1065605123
 C        14.2696187071       -6.1645037375      -13.9415864708
 C        13.1264930497       -5.2303392393      -14.2729936309
 O        12.3941737047       -4.9086535387      -13.3230693442
 C        12.8631469954       -4.5582207304      -15.6130618177
 C        11.7747649002       -4.9575228673      -16.5827585506
 C        10.6273690737       -4.0014795652      -16.6895537736
 O        10.3799023094       -3.0461285092      -15.9090816627
 C         9.5695269136       -4.2538930399      -17.8415155320
 C         8.1608646440       -4.6839082099      -17.3165655269
 O         7.6013922731       -5.6461964670      -17.7598191234
 C         7.3361782060       -3.8417421592      -16.3584870517
 C         6.7346624888       -4.6164355220      -15.1554882341
 C         7.6097584726       -4.8499475936      -13.9516326255
 O         8.8161525283       -5.0787360401      -14.0394380694
 C         7.0297374434       -4.6249245769      -12.4701434126
 C         7.6733779080       -3.2504615174      -11.7642829460
 O         8.7099260109       -2.8240196374      -12.1711686357
 C         6.8881753766       -2.6475132515      -10.6078720222
 C         6.5961904800       -1.1937436388      -10.6883945650
 C         5.7021955144       -0.8704598583      -11.9167048410
 O         5.7842307792       -1.6463456436      -12.8536482356
 C         4.6488405633        0.2971830536      -11.8551291749
 C         3.4525232859       -0.4112489217      -11.0465763590
 O         3.7046896173       -0.6375761389       -9.8907077796
 C         2.0313243288       -0.5748841470      -11.5035062415
 C         1.0387090541       -0.8678698319      -10.3150958143
 C        -0.1345610169       -1.7199177757      -10.9626283249
 O        -0.1944354926       -1.9877498213      -12.1716084540
 C        -1.4074454387       -2.0058538655       -9.9237503092
 C        -2.4440571814       -0.7679264953       -9.9406798088
 O        -2.4797942969       -0.0408266990       -9.0230332999
 C        -3.3670630345       -0.5943680361      -11.2754639636
 C        -4.4434307455        0.5373783475      -11.1422724853
 C        -5.5692181312        0.1961723808      -10.0766126180
 O        -6.0749984496       -0.9053267432       -9.9427847065
 C        -6.3024126883        1.4294604109       -9.3432451694
 C        -7.7817298710        0.9580178122       -9.1262413055
 O        -8.0706885863       -0.0008176466       -8.3550300547
 C        -8.8432595839        1.7272002479       -9.8762720631
 C       -10.2023532789        0.9434345406      -10.1811476739
 C       -11.1899917726        2.0743201467      -10.7538237035
 O       -11.4166507963        2.9649153080       -9.9625350370
 C       -11.8028549289        1.8245710982      -12.2161229013
 C       -12.4522202964        0.3875719386      -12.0562348711
 O       -12.7599897902        0.0823505208      -10.8982984189
 C       -12.5871448431       -0.5038840877      -13.2933634349
 C       -13.0218894818       -1.9447480359      -12.9919770987
 C       -11.8352904282       -2.6419514521      -12.3016256905
 O       -10.6974751523       -2.1820583508      -12.2983229296
 C       -12.2411205408       -3.8687263106      -11.4211786154
 C       -11.0714886378       -4.7254936670      -10.7998278056
 O       -11.2841632435       -5.8880040794      -10.5053009205
 C        -9.7182227660       -4.0676108582      -10.2922210516
 C        -9.1826566599       -4.7170047781       -8.9278574634
 C        -9.4464343099       -3.7402175482       -7.6977455754
 O       -10.1717941370       -2.7733573460       -7.9116263736
 C        -8.6618272290       -3.7971011230       -6.4312655270
 C        -9.5551983777       -3.0260045962       -5.4005278879
 O        -9.4304543357       -1.8130034855       -5.2226692931
 C       -10.6405818522       -3.7876439521       -4.5233133120
 C       -11.9187135497       -2.9894736208       -4.2413363686
 C       -12.9812173776       -3.0518785979       -5.3611643390
 O       -12.6822590848       -3.3377228581       -6.4985234269
 C       -14.5621508971       -2.6233364768       -5.0588771750
 C       -14.5778396970       -1.0986808892       -5.2204442114
 O       -14.3205106543       -0.3859842479       -4.2544618184
 C       -15.0776281140       -0.4721408577       -6.5293124824
 C       -14.4205780941        1.0019949092       -6.8226815451
 C       -12.8748258974        0.9421878372       -6.7035864349
 O       -12.2300158867        0.0236962689       -7.1576175477
 C       -12.1428365588        2.0236042615       -5.9058381348
 C       -10.9106707337        2.5833786003       -6.6894795843
 O        -9.9315123612        1.9248467116       -6.9031218164
 C       -10.9287126056        4.1663785959       -7.1390946277
 C        -9.6576695618        4.9673194317       -6.5213728750
 C        -9.6840798026        5.1253912171       -4.9724894441
 O        -9.7054739230        4.1687511812       -4.1732574684
 C        -9.5607266009        6.6151554595       -4.3515389222
 C        -8.3563666185        7.3993841612       -5.0651339209
 O        -8.1281914036        7.3475037425       -6.2544345124
 C        -7.3507598638        8.2846839589       -4.2419187543
 C       -10.8991127815        7.3149215155       -4.7138333924
 C        -9.4569096032        6.5075653649       -2.8472168949
 C       -13.0117201213        3.0987582865       -5.2558230445
 C       -11.5500153707        1.3193640324       -4.6424637455
 C       -15.4080442311       -3.3133436359       -6.1331125858
 C       -14.9661991109       -3.0604891760       -3.6911818881
 C        -8.3206716237       -5.2129473363       -6.0997786494
 C        -7.3273210056       -3.0202830322       -6.7638089575
 C       -12.9757947366       -3.3867688535      -10.1674564104
 C       -13.1725020931       -4.7712067393      -12.3734827037
 C       -12.8972228267        2.9157877832      -12.4377452489
 C       -10.7222974090        1.9658954793      -13.3709609905
 C        -5.5556235265        1.4621688840       -7.8976799702
 C        -6.1957518896        2.7646941841      -10.0975088699
 C        -2.0123088658       -3.3324685991      -10.4581014305
 C        -1.0396460695       -2.1349905086       -8.4520192250
 C         5.0426369292        1.6606289190      -11.1176958420
 C         4.2669662352        0.6192559289      -13.2529738201
 C         5.4762064110       -4.5903232870      -12.5189935179
 C         7.5754082561       -5.8120533305      -11.5890035504
 C         9.4341162537       -2.8275353281      -18.5408343290
 C        10.1002193644       -5.3735257729      -18.8390071157
 C        14.3209082174       -6.8034254490      -12.5242014380
 C        15.5560126276       -5.3681144030      -14.2353296034
 H        16.1965145884       -8.4539689904      -14.1613079047
 H        15.1685701174       -9.5495111280      -15.1724194693
 H        14.4200821530       -9.1213510709      -13.5757899726
 H        13.8547766910       -4.6297526493      -16.1120251346
 H        12.6712965787       -3.5296073102      -15.3774614877
 H        11.5177872029       -5.9851684248      -16.2757041362
 H        12.2001919499       -5.1296818634      -17.5243095220
 H         6.5641412843       -3.4287959004      -16.9301550061
 H         7.8621422962       -2.8711244866      -16.0519990908
 H         6.3437520646       -5.5359419125      -15.3164030314
 H         5.8668629394       -3.9554298028      -14.7954701271
 H         7.5744341829       -2.8200921039       -9.7271710713
 H         5.9398945025       -3.1990564504      -10.6034649816
 H         7.4428199097       -0.5709546867      -10.6949459871
 H         6.0820148008       -1.0130376356       -9.7137805498
 H         1.9748372508       -1.5160226826      -12.1014503063
 H         1.7182438132        0.2139044308      -12.1145987953
 H         0.6549300627        0.0783631259       -9.8826868500
 H         1.6375761510       -1.3106387053       -9.5690716902
 H        -3.9210298555       -1.5495648552      -11.3842329847
 H        -2.8416761522       -0.4033487361      -12.2496066768
 H        -4.8197218330        0.5045419894      -12.1828105936
 H        -3.9240235952        1.5319822965      -10.9994180407
 H        -8.4553050890        1.9472197300      -10.7976428295
 H        -9.0378443916        2.6249477377       -9.4070824896
 H       -10.7828314702        0.5825623794       -9.3821822639
 H        -9.8870201664        0.0640729078      -10.8558005787
 H       -11.8138022384       -0.4943742410      -14.0497784198
 H       -13.4460344269       -0.0096071824      -13.7781296661
 H       -13.2429419537       -2.5332959795      -13.8940503408
 H       -13.8947011706       -1.9547335227      -12.3351668234
 H        -9.8239379928       -2.9726158658      -10.1792587446
 H        -8.8269234170       -4.1109269497      -10.9038767347
 H        -8.1114908584       -5.0524529573       -8.9748104978
 H        -9.6597094039       -5.6901323874       -8.9841770053
 H       -10.2067426230       -4.1162423312       -3.5662175515
 H       -10.9023847435       -4.7373819981       -5.0288464049
 H       -11.5253052276       -2.0900963714       -3.8573577389
 H       -12.3714146640       -3.5403873057       -3.4274226252
 H       -16.1568232390       -0.3391871708       -6.4311702610
 H       -14.9641130972       -1.0630801584       -7.3859413554
 H       -14.9531958498        1.7148539972       -6.1155152262
 H       -14.6512458113        1.3418458334       -7.8741643295
 H       -11.9443380248        4.7377513480       -6.9728553232
 H       -10.6911368616        4.2371088102       -8.2371954879
 H        -9.5034193335        5.9017338596       -7.0491075673
 H        -8.7632184140        4.3025364344       -6.6598448533
 H        -6.4912813683        8.2299755936       -4.8915261565
 H        -7.3056444512        8.1057668396       -3.2147904471
 H        -7.7518521911        9.3040708086       -4.2030559783
 H       -11.7673607512        6.6125424948       -4.4974818660
 H       -11.0452748630        7.3464658043       -5.8152061985
 H       -10.9738581777        8.2541522568       -4.2353574091
 H       -10.1906751430        5.8666190598       -2.4516718884
 H        -9.6465493927        7.4985167278       -2.4471607134
 H        -8.5341192187        6.0963002798       -2.5700200604
 H       -12.4285167213        3.8121212285       -4.6605686369
 H       -13.7110180930        2.6887794446       -4.5538718128
 H       -13.5981640752        3.5968739528       -5.9507418141
 H       -10.8454146508        1.9971642921       -4.2188861324
 H       -10.9538875948        0.3801264497       -4.8718076928
 H       -12.3614848083        1.0385243999       -3.9294181216
 H       -16.4006795524       -2.9201026428       -6.0074611059
 H       -15.4968638745       -4.4002718141       -6.0098565426
 H       -14.9225888016       -3.0485735670       -7.0307975346
 H       -14.8114709012       -4.1213796638       -3.4737988972
 H       -16.0045868941       -2.7441201711       -3.4945298047
 H       -14.4196246375       -2.4810540768       -2.9824214950
 H        -7.5414558407       -5.5346615465       -6.8090261580
 H        -9.0859564092       -5.8807555861       -5.9525559432
 H        -7.7969277519       -5.2737252006       -5.1175354240
 H        -6.4453616271       -3.4279617263       -6.2439154842
 H        -7.4036502282       -1.8724205636       -6.6298452540
 H        -7.0957582398       -3.2351587952       -7.8415432050
 H       -12.4077208080       -3.6163483899       -9.2451664593
 H       -14.0093319559       -3.7999752876      -10.1838077674
 H       -13.0767157101       -2.2714194564      -10.1405369674
 H       -14.2260027416       -4.3649637154      -12.3547308554
 H       -13.1922318017       -5.7646617043      -11.9865748024
 H       -12.6975868640       -4.9462355836      -13.2847694093
 H       -13.4272013738        2.8307452409      -13.4100655793
 H       -12.4116726760        3.8810440691      -12.5668973200
 H       -13.6821701938        2.9284677559      -11.7327868112
 H       -11.0307868205        2.4813787177      -14.2773274189
 H       -10.3189535605        0.9907939338      -13.6058736809
 H        -9.8739295897        2.4833641693      -12.9933803717
 H        -6.1878213118        1.0326745714       -7.0562855125
 H        -5.5201656740        2.5249476860       -7.6306828732
 H        -4.5143283046        1.0662780300       -7.8761972511
 H        -5.1754423601        3.1288257506       -9.8814975734
 H        -6.7626242864        3.5777021187       -9.5756279164
 H        -6.3453855551        2.6676129657      -11.1770617370
 H        -2.7915503353       -3.5352794709       -9.6980676240
 H        -1.2872706522       -4.1251278830      -10.4745799878
 H        -2.4522079073       -3.1978924498      -11.4251668385
 H        -1.8065777057       -2.5325207101       -7.7452043103
 H        -0.6443008744       -1.2004382055       -8.0078371243
 H        -0.3217093368       -2.9948831291       -8.3822816965
 H         5.4368865539        1.5409846942      -10.1616700262
 H         4.0625874279        2.1950363691      -10.8039560133
 H         5.6973036473        2.1815014533      -11.8236704326
 H         4.0566574412       -0.2702845785      -13.7791491559
 H         5.2133080129        1.0245766467      -13.6330293348
 H         3.5233506694        1.4034854345      -13.3630389246
 H         4.9928204631       -4.6775678156      -11.4710673289
 H         5.1857985622       -5.4866658527      -13.1128118578
 H         5.1000437818       -3.8495891705      -13.1294567342
 H         8.6635561142       -5.6763703083      -11.5264299425
 H         7.6293630386       -6.8094077824      -12.0913922154
 H         7.0794955143       -5.9144820089      -10.6355994522
 H        10.3316310633       -2.6038862369      -19.0540246544
 H         9.1243762356       -2.1701349778      -17.7062784688
 H         8.6425331097       -3.0520153516      -19.3391932387
 H        10.8282400650       -6.0138927855      -18.3349928496
 H        10.5308495269       -4.8316954123      -19.7104507258
 H         9.2281435517       -5.9098772537      -19.1648501452
 H        15.2703260659       -7.4173285184      -12.5436653626
 H        13.4551998482       -7.5095583115      -12.3731013249
 H        14.1665249752       -6.0835388085      -11.7121773743
 H        16.4757722065       -6.0037086948      -14.0324838279
 H        15.6134471495       -4.5963221254      -13.4329285118
 H        15.6755783051       -5.0923185623      -15.2767905628
 Na       -9.9655202914       -0.4100893130       -7.1483880742
 Na       10.6664646123       -3.4766333512      -13.5002362931
