232

 C        15.2651650924       -8.7985120595      -14.6208739605
 C        14.3628750615       -7.6670116685      -15.1226928920
 O        13.8465379106       -7.5598882117      -16.1789436536
 C        14.2780197116       -6.2246455846      -14.0311405199
 C        13.1107989703       -5.2511603260      -14.3222316693
 O        12.3811758259       -4.8640507607      -13.4385082752
 C        12.9658326607       -4.6409907088      -15.7424586296
 C        11.5356584555       -5.0886155785      -16.4173982637
 C        10.5147158973       -3.9522589857      -16.6857783202
 O        10.3268717286       -3.0902361691      -15.8654041035
 C         9.4731354390       -4.1557794976      -17.8456084416
 C         8.0659632182       -4.5812036592      -17.3109524647
 O         7.4730306690       -5.5529027363      -17.7098480549
 C         7.4677059153       -3.6917584803      -16.2129249488
 C         6.6706801103       -4.4989292911      -15.1537059158
 C         7.6750018080       -4.6934846172      -13.8686123761
 O         8.8304234985       -4.8224296966      -14.1542602697
 C         7.2012684701       -4.5138267955      -12.3791826599
 C         7.7585878250       -3.2079187948      -11.8114128782
 O         8.7744028917       -2.6006063924      -12.2165269385
 C         7.0316724070       -2.6026277584      -10.5257156436
 C         6.5667311481       -1.0594102972      -10.7045550506
 C         5.7742250708       -0.8334210129      -11.9301146274
 O         6.0064407755       -1.4370182417      -12.9690092832
 C         4.6302184074        0.2276870379      -11.8702111814
 C         3.5509151520       -0.4494490476      -11.0543355561
 O         3.7941573527       -0.5865788042       -9.8768042127
 C         2.1101729277       -0.5850536221      -11.5565753964
 C         1.0430157805       -0.8022805847      -10.4763989379
 C        -0.2087894321       -1.6423868204      -11.0101947980
 O        -0.4940601093       -2.0232525627      -12.1010237562
 C        -1.2953373904       -2.0015468387       -9.8159163048
 C        -2.4008593373       -0.8973089293       -9.9204475965
 O        -2.4339224639       -0.1085679678       -8.9598678931
 C        -3.2311079333       -0.7027734652      -11.1476043711
 C        -4.2171283387        0.4531064531      -10.8716819951
 C        -5.4698869097        0.0058877830      -10.0972278310
 O        -6.0188524149       -1.1209182932      -10.0891535302
 C        -6.1946074144        1.2288736226       -9.2528314487
 C        -7.8286112415        0.8127890101       -9.0648464146
 O        -8.1202639322       -0.0309449739       -8.2825928406
 C        -8.7970699510        1.6072300172       -9.9710767164
 C       -10.1535231911        1.0474866452      -10.1924388873
 C       -11.1760214019        2.0149607260      -10.6735391534
 O       -11.4985479790        2.9766899974       -9.9953543236
 C       -11.8310228066        1.8110636695      -12.0920830992
 C       -12.4486628720        0.4108833949      -12.0363490894
 O       -13.0672563433       -0.0099445174      -11.1019594136
 C       -12.5707097621       -0.3247861151      -13.3621602774
 C       -12.7484708705       -1.7865304217      -13.0852278743
 C       -11.7213638961       -2.5671612049      -12.2788455158
 O       -10.5529592954       -2.2185578191      -12.3183584948
 C       -12.2890995152       -3.8751496205      -11.3791124753
 C       -11.0807231016       -4.7609379964      -10.6259827225
 O       -11.2658993899       -5.9131038931      -10.3291634725
 C        -9.7677799790       -4.1259613758      -10.3867973549
 C        -9.2145315214       -4.5452382393       -9.0058072972
 C        -9.5578712561       -3.6119121436       -7.9073461078
 O       -10.2446474406       -2.6365449891       -7.9965438202
 C        -8.7213301907       -3.7783124257       -6.4868618279
 C        -9.6221272670       -3.0878581728       -5.3720241143
 O        -9.3098431438       -1.9336750715       -5.1344545418
 C       -10.6974436444       -3.7459125149       -4.6280713183
 C       -11.8686942510       -2.7048283492       -4.3524114437
 C       -13.0084499281       -2.8995937249       -5.3937933143
 O       -12.7095932340       -3.2003519559       -6.5363730699
 C       -14.5178633469       -2.5657730873       -4.9421810556
 C       -14.4873639270       -1.0120691506       -5.2160000191
 O       -14.1167209006       -0.1990201111       -4.3919578642
 C       -14.8540797941       -0.5137882590       -6.6012626148
 C       -14.4545484241        0.9348205915       -6.8245884027
 C       -12.9304898033        0.9218654016       -6.6494685723
 O       -12.2895579717        0.0200429653       -7.1770421795
 C       -12.1345543390        1.9165528441       -5.7531079352
 C       -10.9564833868        2.5794753069       -6.6466948761
 O       -10.1450856111        1.7991213607       -7.1424587673
 C       -10.9749763373        4.0608991354       -7.0591641501
 C        -9.7692437395        4.9042653729       -6.5982014771
 C        -9.7209342745        5.0977701003       -5.0764909702
 O        -9.8352710566        4.0787434003       -4.4659887743
 C        -9.6097055397        6.4650355410       -4.3721298234
 C        -8.4506206287        7.3836759148       -5.0845119312
 O        -8.2834718339        7.3352972345       -6.2896349275
 C        -7.5663661405        8.2922547427       -4.2444357910
 C       -10.9085342741        7.2232166824       -4.7419209975
 C        -9.3272213866        6.2822571673       -2.8878093495
 C       -13.1196403895        2.9755179472       -5.1976156916
 C       -11.3361784183        1.2475245276       -4.6138733305
 C       -15.4814064264       -3.3452296061       -5.8716675860
 C       -14.8792083748       -2.8740637938       -3.4565719175
 C        -8.4591252212       -5.2247872158       -6.1756417077
 C        -7.3906222637       -3.0172084450       -6.5136267716
 C       -13.2008212845       -3.2543039316      -10.2305419333
 C       -12.9537837272       -4.8909869838      -12.3003834883
 C       -12.9625806767        2.9145944379      -12.3008742100
 C       -10.6533251887        2.0851839538      -13.0264207354
 C        -5.7200755472        1.3492337535       -7.8573954107
 C        -5.9476087143        2.5942374662       -9.9863376454
 C        -1.8981963954       -3.3785762563      -10.1745929993
 C        -0.5246470100       -2.0604366380       -8.4652557566
 C         4.9669681560        1.5912955975      -11.1860895829
 C         4.2447183332        0.4866993461      -13.4022738729
 C         5.6038945956       -4.6898991809      -12.2794804849
 C         7.8781546512       -5.6003177121      -11.6042527241
 C         9.0718580243       -2.8181958479      -18.6183135006
 C         9.9037932524       -5.1584142951      -18.9424359031
 C        14.1434381423       -6.5916844506      -12.5461809649
 C        15.5486680675       -5.4703054111      -14.2946332341
 H        15.8548471980       -8.3210826858      -13.8481090905
 H        15.8524821946       -9.2852707039      -15.3479640572
 H        14.5046490804       -9.4774275019      -14.2946907580
 H        13.8188621793       -4.8463460617      -16.3690478455
 H        12.8468813328       -3.5329052559      -15.5395523036
 H        11.1724790724       -5.9032093030      -15.7596345986
 H        11.7410857772       -5.7259469496      -17.3408998232
 H         6.8477939561       -2.9283194667      -16.8199722725
 H         8.1718735681       -3.0508483098      -15.8655503179
 H         6.3402933259       -5.4744578458      -15.7477372457
 H         5.7927482996       -4.0073705964      -14.8188164573
 H         7.7935158438       -2.6578258103       -9.7836548113
 H         6.1928518436       -3.2688104610      -10.2902290383
 H         7.4731079705       -0.3618872496      -10.8366859019
 H         6.0554226905       -0.7451639648       -9.7903175487
 H         1.9863771510       -1.3001242280      -12.3556800965
 H         1.8517197557        0.4163073031      -12.0672546862
 H         0.8103285126        0.1644874656      -10.0338208175
 H         1.5604477385       -1.3927166179       -9.6429413419
 H        -3.7270394025       -1.6619780970      -11.3226144999
 H        -2.5612217581       -0.5262820308      -12.0028886502
 H        -4.4735028051        0.8834088728      -11.8423784770
 H        -3.6650433221        1.2011941844      -10.3066576465
 H        -8.1977113883        1.7269907855      -10.9757879140
 H        -8.9451457560        2.6916607602       -9.5726748649
 H       -10.4710163874        0.4574121598       -9.2961208095
 H       -10.1088917899        0.3712316958      -11.0003585772
 H       -11.6824341226       -0.1242353795      -14.0132701793
 H       -13.4348471858        0.0120137314      -13.9566496834
 H       -12.9837109211       -2.4034944739      -13.9630290737
 H       -13.6220296515       -1.7062402571      -12.4338513832
 H        -9.7367954400       -3.0598177495      -10.4193814325
 H        -9.0269230243       -4.3707474118      -11.1559761855
 H        -8.1732120917       -4.7334747771       -8.9853776055
 H        -9.5270614009       -5.5697095796       -8.7508074753
 H       -10.0798252368       -3.9216436059       -3.7282297342
 H       -11.0762185120       -4.7184417847       -4.9238127361
 H       -11.3602129874       -1.7263515428       -4.6581508841
 H       -12.0002424705       -2.7289705940       -3.2526352383
 H       -15.9409445053       -0.5025705471       -6.7762040282
 H       -14.4152748961       -1.1089930951       -7.4319962344
 H       -14.9514274283        1.4207473895       -6.0223083434
 H       -14.7740327408        1.2947613263       -7.7844793253
 H       -11.8743483423        4.4663919914       -6.7371433648
 H       -10.8880654062        4.0928486425       -8.1481017394
 H        -9.7247196976        5.8373543638       -7.1457787409
 H        -8.9321140366        4.3136118700       -6.8160104107
 H        -6.6021147034        7.7471014388       -4.2240584027
 H        -8.1174082653        8.5774050646       -3.3400175107
 H        -7.4796880381        9.2805935133       -4.6413303342
 H       -11.7256794791        6.7178155577       -4.3132025744
 H       -11.1625899924        7.3371891895       -5.7968988451
 H       -10.7927072773        8.2482963812       -4.2656567532
 H       -10.2787162185        6.0218094403       -2.3177685089
 H        -9.1061262175        7.1773983041       -2.3490684235
 H        -8.6683771239        5.4079362158       -2.7224448097
 H       -12.6616697128        3.7475149833       -4.5963358806
 H       -13.7449563967        2.5500967330       -4.3968230403
 H       -13.8703567474        3.3145177477       -5.9652707707
 H       -10.5322641853        1.9105371910       -4.2091703761
 H       -10.7547255671        0.4510829237       -4.9798451985
 H       -12.0347790070        0.8716505529       -3.8992442002
 H       -16.5385475809       -3.0670390893       -5.6656930854
 H       -15.4416444148       -4.4075391883       -5.6243610074
 H       -15.0158151377       -3.2846412065       -6.9019348453
 H       -14.6568593609       -3.9073902230       -3.0537729320
 H       -15.9449280500       -2.6320114112       -3.2848574838
 H       -14.3410829517       -2.1143645833       -2.7950220282
 H        -7.7004828019       -5.5697662352       -6.8509912032
 H        -9.3458376065       -5.9463223896       -6.2809058581
 H        -8.1077996254       -5.4369069196       -5.2073567966
 H        -7.2050330505       -2.6878047680       -5.5025053284
 H        -7.3363453978       -2.1530337767       -7.1423058323
 H        -6.5612526065       -3.6923454674       -6.7269317198
 H       -13.3932430571       -4.0928430522       -9.5644251457
 H       -14.1290578216       -2.9018383155      -10.5779198755
 H       -12.6720714486       -2.4724418362       -9.7037518483
 H       -13.9267655332       -4.5784978819      -12.5854108437
 H       -13.1104802704       -5.8348493294      -11.7679358859
 H       -12.3191850639       -5.1195208842      -13.2008862184
 H       -13.9818369214        2.6634198169      -12.5491538681
 H       -12.6506003825        3.7059457918      -13.0159125721
 H       -13.1248900658        3.3177948659      -11.2663458957
 H       -10.7236902934        1.6486223279      -14.0050345304
 H        -9.7125064129        1.7089829829      -12.5505965803
 H       -10.4477678973        3.1608085788      -13.1487532669
 H        -5.8035198787        0.4443408155       -7.3172775519
 H        -6.1970021006        2.1578716615       -7.2853925318
 H        -4.6663876079        1.5694481931       -7.9398680813
 H        -4.9047990746        2.8785338491       -9.9264326832
 H        -6.5641613214        3.3396026317       -9.4663107009
 H        -6.2305581569        2.4989147418      -11.0321696597
 H        -2.9680890647       -3.4372637368      -10.3439168600
 H        -1.6833261147       -4.0127098732       -9.2954598627
 H        -1.2657361056       -3.7779395836      -11.0000229674
 H        -1.0601107849       -2.6578136724       -7.7107129679
 H        -0.5217508167       -1.0654951069       -8.0121217002
 H         0.4486763864       -2.5684571237       -8.4951372389
 H         5.5368100081        1.3400109913      -10.2355887194
 H         4.1305349534        2.1510430126      -10.8542382112
 H         5.5768884996        2.1313330125      -11.9022002701
 H         3.8115946840       -0.4138832587      -13.8754723744
 H         5.0750275672        0.8537138319      -13.9782481147
 H         3.4616311294        1.2487760097      -13.3823459751
 H         5.3360267087       -5.1388804221      -11.3903887364
 H         5.1728242059       -5.2429785601      -13.0857139284
 H         5.1666831775       -3.6536290774      -12.4744172441
 H         8.8193121884       -5.3211928327      -11.1090734406
 H         8.2720766235       -6.3085773993      -12.2679349988
 H         7.2566482666       -6.0678451942      -10.8230701642
 H         9.8778038497       -2.6460887002      -19.3644572307
 H         9.1223186718       -2.1118755037      -17.8692990625
 H         8.2659052046       -3.0168967871      -19.2026363022
 H         9.5967274736       -6.1093391675      -18.6034674456
 H        10.9678712093       -5.1778015433      -19.0137470337
 H         9.4415468035       -4.7647442714      -19.8442029217
 H        15.1183846568       -6.8508261404      -12.2910023366
 H        13.5155672684       -7.4199477389      -12.2480438220
 H        13.6663069773       -5.7357457112      -12.0340255008
 H        16.3374948441       -6.0561402222      -13.9446849954
 H        15.6657620123       -4.5917296131      -13.7211507466
 H        15.7699123123       -5.4658403353      -15.3495911013
 Na       -9.9583039274       -0.5838884604       -7.0118747290
 Na       10.4179180291       -3.3316982715      -13.6659116529
