232

 C       -22.4947101895       -6.9088384161       -4.8490495741
 C       -21.4505110664       -6.2960361410       -3.9041469357
 O       -20.3765502707       -6.8505721865       -3.6992163752
 C       -21.8164533186       -4.8713871033       -3.2519225634
 C       -20.5579522385       -4.2186455766       -2.6474201991
 O       -19.9913743150       -4.8611271631       -1.8105525371
 C       -19.9473488272       -2.8998857798       -3.2788562373
 C       -18.6800565335       -2.4387180444       -2.5882477408
 C       -17.4135941935       -3.2281225285       -2.9927826737
 O       -17.5089543137       -3.9149569050       -4.0067097789
 C       -16.0659362622       -3.2177895822       -2.1584923013
 C       -16.0773226534       -4.5935493510       -1.4661834177
 O       -17.1633315463       -5.0628314839       -1.0851772463
 C       -14.7860146245       -5.3494981845       -1.1075462207
 C       -14.9990701709       -6.8406953293       -0.8397071203
 C       -15.3247227187       -7.5708468360       -2.0964414026
 O       -16.3277894104       -7.3759649039       -2.7460012024
 C       -14.3043135079       -8.6599810327       -2.4709116253
 C       -12.8216851908       -8.0384045772       -2.5565658157
 O       -12.6187206800       -6.8843367831       -2.8172616895
 C       -11.6558317496       -8.8961017747       -2.0069556859
 C       -10.3981772670       -8.8156162621       -2.8640281238
 C        -9.1478817733       -9.5093177746       -2.1995922764
 O        -8.9886292999       -9.5680601935       -1.0097321320
 C        -8.0824976703       -9.9271324138       -3.2776142614
 C        -7.5099861467       -8.7124592539       -4.0056132808
 O        -7.1384359186       -7.7522575099       -3.3541630352
 C        -7.1396474149       -8.7592903673       -5.5347380428
 C        -6.1926896315       -7.6478462832       -5.9996087274
 C        -6.9632415921       -6.5100095554       -6.7060332197
 O        -8.1619636652       -6.5533288333       -6.9382832252
 C        -6.2687414170       -5.1436336187       -7.2726889459
 C        -5.0316210912       -5.4388831277       -8.2756455135
 O        -3.9221789864       -5.5215642736       -7.7535319777
 C        -5.0887747721       -5.7569217027       -9.7933801343
 C        -4.5585866922       -4.6582256417      -10.6857966168
 C        -4.4853017952       -5.0144878632      -12.2252140678
 O        -3.7794112120       -5.8909492433      -12.6145962900
 C        -5.3610422348       -4.0193224574      -13.2521393482
 C        -4.7298647879       -2.6282989218      -13.1933988275
 O        -5.4319041162       -1.6567640253      -12.9849506650
 C        -3.1738990811       -2.5275974087      -13.3654679916
 C        -2.3585342202       -1.9365243596      -12.1774253935
 C        -0.9183818006       -1.4673559490      -12.6722690129
 O        -0.7380581400       -0.9202842772      -13.7552659079
 C         0.4095995076       -2.1104699745      -11.8669852042
 C         1.5189938428       -1.1406334295      -12.4709024308
 O         2.1282486209       -1.5854390880      -13.4245392096
 C         1.7338196451        0.1631437045      -11.6762185860
 C         3.3495028707        0.1817671174      -11.4253605000
 C         3.6564122476        1.4477998788      -10.4863568851
 O         2.8547704505        2.1265053529       -9.9044264682
 C         5.1425801147        1.8666277547      -10.4024575915
 C         5.3471880802        3.0015067943      -11.6050119886
 O         6.2639003953        2.8692183645      -12.4269452672
 C         4.4107656314        4.2088192231      -11.5352277889
 C         5.1796539072        5.4168186491      -11.3392888997
 C         5.7800981239        6.0842710069      -12.5974404180
 O         5.5516766718        5.6059675625      -13.6782554950
 C         6.7524954417        7.3329497949      -12.5066965779
 C         7.6053981307        7.2078591616      -13.8366452299
 O         7.3462967561        7.9737009821      -14.7631051436
 C         8.7380916312        6.2129417485      -13.9519620391
 C         9.1411390482        6.2140299965      -15.4099408837
 C         7.8716253857        5.9133946783      -16.3556399424
 O         6.9796592469        5.1488017850      -16.0322896217
 C         7.6531429706        6.5997575005      -17.8139750351
 C         8.3226796658        5.7168989680      -18.9209352949
 O         9.1915976976        5.0000477441      -18.5616756382
 C         7.7538996318        5.6527340618      -20.4357630889
 C         8.6253663598        4.6289158833      -21.1770525352
 C         8.3448091234        3.3078756587      -20.5380051994
 O         7.2812111444        2.9074159066      -20.0605992446
 C         9.5456499124        2.3214132371      -20.4778836198
 C         9.1961787328        1.2264353951      -19.3350713370
 O         9.1079329017        0.0475410659      -19.4923107307
 C         9.1763865030        1.7613825395      -17.8127344404
 C         8.5431900793        0.6991001837      -16.8831292883
 C         7.2991869969        1.2468258864      -16.1180863367
 O         7.5384966465        2.1032865109      -15.2921846150
 C         5.8778959453        0.7002258888      -16.5901724506
 C         4.8777826134        1.7613433329      -17.1857508393
 O         4.3807760307        2.5262847432      -16.3597822674
 C         4.5406371789        1.8023719878      -18.6909280597
 C         5.9995061165       -0.4301322956      -17.5874076944
 C         5.3049234932        0.2346178676      -15.2352755345
 C         9.5689321563        1.6301695779      -21.8400123647
 C        10.9799934959        2.7972714016      -20.1557343996
 C         6.0879953536        6.7828462586      -17.8500284862
 C         8.3372427666        8.0086263751      -17.9524908611
 C         5.7613752992        8.5733274522      -12.4333938375
 C         7.5247428687        7.3257589699      -11.1948513964
 C         5.2792084094        2.6373418434       -9.0763204569
 C         6.0912500711        0.5917276562      -10.5350690641
 C         0.1698490094       -2.0963374434      -10.2713244932
 C         0.5458149403       -3.5868885258      -12.3179168991
 C        -5.1438906600       -4.6880932443      -14.6572368335
 C        -6.9426205668       -4.0245057117      -12.9219382094
 C        -7.3125250519       -4.3408603288       -8.0740046354
 C        -5.6432964381       -4.3588185848       -6.0333853282
 C        -6.8520613248      -10.5647439732       -2.5026513082
 C        -8.6141581114      -10.9616257759       -4.3338319560
 C       -14.3645331694       -9.6533900399       -1.2628952922
 C       -14.6812256302       -9.3449706981       -3.7394668165
 C       -14.9061638456       -3.0902017237       -3.1819501467
 C       -16.0910739204       -2.2625078981       -0.9663089512
 C       -22.4901158431       -4.0575644236       -4.4128112673
 C       -22.8504715186       -5.1990951973       -2.1955759648
 H       -23.5218353541       -6.7703948057       -4.5501460899
 H       -22.2697348236       -8.0406384104       -4.7869976771
 H       -22.1581920911       -6.5548422243       -5.7811037769
 H       -20.7841525518       -2.1805884489       -3.2874456130
 H       -19.7057553714       -3.0733332564       -4.3263602982
 H       -18.9341084175       -2.4453423704       -1.5126790589
 H       -18.4295788672       -1.4136623779       -2.8520789881
 H       -14.5457428985       -4.8760079560       -0.1828770991
 H       -14.0044596499       -5.2360308338       -1.8931663373
 H       -15.8138021578       -6.8811918583       -0.1786404655
 H       -14.0707641254       -7.2478828913       -0.2671155229
 H       -11.9671662588       -9.9504914079       -2.0698722588
 H       -11.4469983220       -8.7283337030       -0.9970934295
 H       -10.2790174632       -7.7162107499       -2.9529840233
 H       -10.4524293843       -9.2804392680       -3.8428274369
 H        -8.0372587440       -8.7485685326       -6.0980337319
 H        -6.5906132086       -9.6595411748       -5.8125174487
 H        -5.4802265349       -8.0345820892       -6.6687146932
 H        -5.6476783731       -7.1431353599       -5.2433767158
 H        -6.0809333739       -6.0844125700      -10.1444559656
 H        -4.3947344413       -6.5732266958       -9.8556268239
 H        -3.5308953531       -4.3163922839      -10.2785939412
 H        -5.2594459235       -3.8181502580      -10.6292660959
 H        -2.9966483904       -1.9694718920      -14.3234943804
 H        -2.5992579905       -3.4065540190      -13.3222478460
 H        -2.3512405348       -2.5697429961      -11.2542662937
 H        -2.7996512337       -0.9309732525      -11.7364047971
 H         1.2654256757        0.2598110333      -10.6850180644
 H         1.4502588101        1.0743861392      -12.2813283533
 H         3.7665122709        0.3037394246      -12.3827284290
 H         3.7077502435       -0.7460759961      -10.9817838000
 H         3.7893601254        4.0223327356      -10.6909178352
 H         3.6998756291        4.0668825410      -12.3898576179
 H         5.9015890223        5.4197377961      -10.4787934939
 H         4.4737783073        6.2263473633      -10.9995743185
 H         8.1593474940        5.3223164440      -13.6595026929
 H         9.5810059611        6.2106453747      -13.2707734510
 H         9.9072789558        5.4057602384      -15.6745435091
 H         9.5464566345        7.1556811790      -15.7700002063
 H         7.8248220537        6.6473255763      -20.9111620915
 H         6.6503082717        5.5407693939      -20.4133913712
 H         9.6692353947        4.7431718213      -21.1252453071
 H         8.4833760996        4.7010274135      -22.2525934893
 H         8.7225592306        2.6919818442      -17.9752181859
 H        10.2014617057        2.0183023904      -17.5197964842
 H         9.2992243957        0.4135679110      -16.1456239077
 H         8.2591880129       -0.2470623422      -17.4317099511
 H         5.2867430760        2.3011883386      -19.3368003631
 H         3.5518529234        2.2662186319      -18.9159553885
 H         4.4685932688        0.7764643845      -19.0408232697
 H         5.0658746837       -0.8913074847      -17.8217220204
 H         6.5088998862       -1.2602926807      -17.0056690310
 H         6.5591287044       -0.4788703853      -18.5551229726
 H         4.2609946737        0.2109492663      -15.3644283897
 H         5.5454028364        1.0154740940      -14.5424547491
 H         5.5324182808       -0.7972461165      -14.9332641122
 H        10.1910537168        0.7963330774      -21.9387205870
 H         9.8606736590        2.3342716019      -22.6281600252
 H         8.5566418835        1.3444508101      -22.1320393849
 H        11.6896469713        1.9518984316      -20.0031149853
 H        10.8516472828        3.4117992908      -19.2185033487
 H        11.4095822818        3.4466782003      -20.9829640915
 H         5.8878712738        7.3273564128      -16.9489183098
 H         5.3832033020        5.9304273274      -17.8515411056
 H         5.8872611506        7.3626906155      -18.7822138135
 H         9.5162681545        7.9352562726      -18.0058811376
 H         7.9814454854        8.6629916308      -17.1430674168
 H         8.0298149075        8.4551242623      -18.8902166040
 H         6.4290683145        9.3665621599      -12.2421584661
 H         5.1444627538        8.5130119762      -11.5582035357
 H         5.1379649374        8.6137214325      -13.3309856152
 H         6.8145129910        7.3070268514      -10.4160498329
 H         8.1692961780        8.2561464780      -11.0202253336
 H         8.1443878723        6.4465194356      -11.1345978348
 H         6.1525169347        2.2438914802       -8.6024624326
 H         4.4539981575        2.3077884461       -8.5013297585
 H         5.2397759878        3.7412140094       -9.1674515017
 H         5.7294658438       -0.3330709536      -10.1909405076
 H         7.0009593406        0.6536496213       -9.9945760975
 H         6.5247830697        0.3315757546      -11.4929266481
 H        -0.3881890449       -1.2665983261       -9.9396127567
 H         1.1773291549       -2.2097815868       -9.8178209195
 H        -0.3527384792       -3.0245068579      -10.0625125464
 H        -0.3327882322       -4.1535193073      -11.8831756957
 H         1.5457970743       -4.0504526854      -12.0611604141
 H         0.4020087125       -3.5562862540      -13.4154969158
 H        -6.0106815342       -4.7328914982      -15.2793927919
 H        -4.8388178153       -5.7230513679      -14.5112676035
 H        -4.3211435997       -4.1724033178      -15.0527390998
 H        -7.3505297557       -3.2793369823      -13.6084089518
 H        -7.0733523522       -3.7221800940      -11.9285123389
 H        -7.2426001844       -5.0139757843      -13.0913183614
 H        -8.0351906919       -5.0645079173       -8.4022310734
 H        -6.8235727832       -3.8242930251       -8.9618646177
 H        -7.7946099454       -3.5490735823       -7.4945480287
 H        -6.3479495711       -4.0850028916       -5.2008065439
 H        -5.1854316544       -3.4608045537       -6.3857393106
 H        -4.9388722533       -4.9622699279       -5.4698881729
 H        -7.2280983031      -11.5533401008       -2.1388196821
 H        -6.5130351119       -9.8458247252       -1.7520975770
 H        -6.0422744504      -10.8390851100       -3.2076802843
 H        -9.3746436927      -11.6758209912       -3.9037240257
 H        -7.8657093181      -11.5541876553       -4.7461400517
 H        -9.1717962418      -10.4660786124       -5.1309160635
 H       -13.6844698644       -9.2240019633       -0.4988589469
 H       -14.2289837342      -10.6966283651       -1.4850616202
 H       -15.3452836625       -9.5874700254       -0.7058343036
 H       -14.7377193996       -8.7033506799       -4.7121423723
 H       -15.6651267988       -9.8190819916       -3.6726189896
 H       -13.9951784290      -10.1473411818       -4.0658426569
 H       -14.7784712613       -3.9985452088       -3.6658149285
 H       -13.9877658207       -2.9544774268       -2.6117661519
 H       -15.1843890248       -2.2754539734       -3.9104231218
 H       -16.6842188087       -2.5912673641       -0.1200188977
 H       -16.5360865210       -1.3419978997       -1.2218321176
 H       -15.1089071840       -2.1130465520       -0.5027856797
 H       -22.2072450897       -4.3111548695       -5.4694086147
 H       -22.3368729367       -2.9218612968       -4.3865655698
 H       -23.5051915587       -4.2184778042       -4.4375577656
 H       -23.4616020438       -4.3067963862       -1.9833209707
 H       -22.4783600738       -5.6068890511       -1.2390464199
 H       -23.5180323722       -5.9380690733       -2.6022610912
 Na      -18.2322497302       -6.1099474426       -3.1539210551
 Na        5.8260752850        3.4536116922      -14.6400500101
