232

 C        15.2039638772       -8.6541682883      -14.6113940593
 C        14.2815443256       -7.5001057396      -15.0193496732
 O        13.6989430886       -7.5776877589      -16.1007015110
 C        14.2553877131       -6.2703712753      -14.1578841950
 C        13.0307041918       -5.2529942394      -14.5185480716
 O        12.2949581247       -4.8954282644      -13.6078519334
 C        12.7585222947       -4.6780652749      -15.9014245082
 C        11.3839759523       -5.1663379541      -16.3348344532
 C        10.4589341363       -4.0574645445      -16.7865164814
 O        10.3741620132       -3.0412765363      -16.0582536047
 C         9.4931940190       -4.1423944386      -17.9217146086
 C         8.0445226764       -4.5819720842      -17.2143874453
 O         7.4093641325       -5.5318229202      -17.5527238819
 C         7.3501713065       -3.6076099288      -16.1950935862
 C         6.6755129864       -4.3302609952      -15.0515250572
 C         7.6590525976       -4.4927869452      -13.8553348284
 O         8.7915501525       -4.8052169121      -14.1919689358
 C         7.2317522763       -4.5339321091      -12.4174276850
 C         7.7478099991       -2.9918669391      -11.8383155584
 O         8.7735428499       -2.5256796538      -12.2080921939
 C         7.1356028955       -2.3969570763      -10.4901031302
 C         6.6612271351       -0.9082201651      -10.6457000736
 C         5.8817152444       -0.7811833255      -11.9812557538
 O         6.1670933167       -1.4076890955      -12.9716743173
 C         4.6350334643        0.2328999890      -11.9230545049
 C         3.4136950909       -0.3295918090      -11.0303777764
 O         3.6838486464       -0.7290776712       -9.9301881713
 C         1.9877723133       -0.5724156680      -11.6883182909
 C         1.0186911577       -0.8608052427      -10.6057365902
 C        -0.1457513643       -1.6981560717      -10.9498026951
 O        -0.4120877246       -1.8316842399      -12.1420211808
 C        -1.0993430294       -2.1044530841       -9.7452129485
 C        -2.2766187605       -0.8528905697       -9.7972097161
 O        -2.3762385178       -0.1805210667       -8.8459481623
 C        -3.2713165021       -0.8432565866      -10.9527133276
 C        -4.1215557249        0.3775571573      -10.7699422979
 C        -5.4524528443        0.0841812737      -10.0677432531
 O        -5.8254890084       -1.1009209301      -10.1298952895
 C        -6.2303031516        1.1097903237       -9.2440310821
 C        -7.7902725013        0.7745535927       -9.1813331059
 O        -8.1730746483       -0.0207621118       -8.3321281622
 C        -8.7615712145        1.5686443998       -9.9872096267
 C       -10.1776116450        0.9658566653      -10.1473791528
 C       -11.2075434158        2.0778935725      -10.5609378961
 O       -11.4927994340        3.0290983967       -9.8767033600
 C       -11.8671485146        1.9092800499      -11.9620328559
 C       -12.5451108969        0.4300948871      -12.0677647002
 O       -13.1699771442       -0.0402993125      -11.1708631966
 C       -12.3847117377       -0.4185661446      -13.4052131152
 C       -12.8328115389       -1.8894192854      -13.1679959875
 C       -11.7149892519       -2.6100705888      -12.2516430773
 O       -10.5434112902       -2.2310045943      -12.3305592731
 C       -12.2200111538       -3.8584152803      -11.3730816395
 C       -11.0592583978       -4.6784464523      -10.5725420383
 O       -11.3247952403       -5.8220876476      -10.2764854054
 C        -9.7364639719       -4.0766749985      -10.3172034229
 C        -9.1248531572       -4.4679701567       -8.9953606258
 C        -9.4499102744       -3.4959243094       -7.9174147833
 O       -10.1987233958       -2.5448678748       -8.1249516081
 C        -8.7709630733       -3.7335538861       -6.5370259812
 C        -9.6666326988       -3.0035279567       -5.3365437460
 O        -9.3783245334       -1.8496226655       -5.1034530331
 C       -10.8120696128       -3.7182728300       -4.6768791352
 C       -11.8626185419       -2.7044952022       -4.3610348129
 C       -12.9944628253       -2.8566810428       -5.3512385351
 O       -12.8417984155       -3.2070889759       -6.5075527854
 C       -14.4398264595       -2.5470815454       -4.8705190120
 C       -14.4943996990       -1.0194072149       -5.2717648987
 O       -14.0547943766       -0.1776261011       -4.4849867896
 C       -14.8601127790       -0.5102985828       -6.6954775267
 C       -14.3262885163        0.9884478467       -6.8178753848
 C       -12.7862837878        0.9083721343       -6.5916327044
 O       -12.1865244633        0.0326307578       -7.1447843377
 C       -12.0111078052        1.9402871177       -5.7366094215
 C       -11.0024074684        2.5279927430       -6.7308933212
 O       -10.1217678969        1.8698262197       -7.2736491318
 C       -11.1758730562        4.0910092440       -6.9895901622
 C        -9.8326502388        4.8833000488       -6.7508061353
 C        -9.7884374232        4.9382555397       -5.1617397006
 O        -9.8917973115        3.9485177492       -4.4312701418
 C        -9.6226715430        6.4238480104       -4.4296409187
 C        -8.4950069464        7.2934149020       -5.1149212015
 O        -8.3734919613        7.3199772307       -6.3048721026
 C        -7.6956124542        8.2900410261       -4.2399275005
 C       -10.8919409553        7.2798898410       -4.7168265340
 C        -9.3296364692        6.1137794514       -2.9772765756
 C       -13.0177758895        2.9977112282       -5.1074245311
 C       -11.4719541966        1.2189697519       -4.5121599504
 C       -15.4183645744       -3.3884253842       -5.6293461989
 C       -14.7249395430       -2.7981978113       -3.4091346268
 C        -8.7178542614       -5.2275415772       -6.1914805305
 C        -7.3253753721       -3.1064973579       -6.5555466641
 C       -13.2118131715       -3.2913395633      -10.3544463627
 C       -12.9351938128       -4.8330079630      -12.2612747555
 C       -12.9620316580        2.8958392171      -12.1955090302
 C       -10.6612274132        2.0708942107      -13.0307935513
 C        -5.6075977154        1.1131246102       -7.8024236671
 C        -5.9002492066        2.4621832384       -9.9704320642
 C        -1.8733898140       -3.4151195865      -10.0109669748
 C        -0.4408961798       -2.0003793979       -8.4173529985
 C         5.2441719053        1.4963642623      -11.3190847193
 C         4.0563944639        0.3904107725      -13.3899381668
 C         5.7370745319       -4.7972627053      -12.2892398425
 C         8.0654789713       -5.6360372059      -11.5747545397
 C         9.1244326156       -2.6399255240      -18.4886797148
 C         9.8716243744       -5.1557607185      -19.1012657834
 C        14.1460488957       -6.6803000114      -12.5784743452
 C        15.6088547084       -5.5614031058      -14.3526869079
 H        15.7666758312       -8.4457650844      -13.7758839728
 H        15.7741046419       -8.8061930603      -15.4889407644
 H        14.5791013076       -9.4813323733      -14.6138567932
 H        13.4875192177       -4.9985644348      -16.6330465664
 H        12.7175932492       -3.5858148127      -15.8097500574
 H        10.9020230571       -5.8170840605      -15.5402657826
 H        11.5835043440       -5.9189646959      -17.0247951231
 H         6.6357221614       -2.9970799379      -16.8301649844
 H         8.0490020342       -2.7909011943      -15.9087430424
 H         6.3473449177       -5.3295476230      -15.5113631442
 H         5.7365875199       -3.8079344900      -14.6001020244
 H         7.9119677527       -2.4960403157       -9.7658662663
 H         6.3110369087       -3.0546119189      -10.2092275798
 H         7.4719465408       -0.1999162897      -10.5239076893
 H         5.9562132389       -0.7440628074       -9.7873709768
 H         2.1180971705       -1.4979107296      -12.2710936910
 H         1.5848598754        0.1509399807      -12.4612661383
 H         0.6907903146        0.0840039373      -10.1834145431
 H         1.5932718127       -1.3436058585       -9.7979658852
 H        -3.8583824625       -1.7190326958      -10.8981036769
 H        -2.6574891629       -0.9335308318      -11.8634174056
 H        -4.3601850885        0.7334188944      -11.7234005420
 H        -3.4546741537        1.1252048466      -10.3178105890
 H        -8.2089170329        1.8381430935      -10.9641594592
 H        -9.0118875845        2.5829385121       -9.4742295042
 H       -10.4011636889        0.5780204356       -9.1998469939
 H       -10.2913650565        0.1060255907      -10.9302107456
 H       -11.3123895665       -0.4916942334      -13.7618830712
 H       -12.9118779374        0.0125319225      -14.2343168738
 H       -12.7365460886       -2.4841822036      -14.1231909191
 H       -13.8373567227       -1.8581293740      -12.8039445487
 H        -9.5768592769       -2.9798791607      -10.3419593938
 H        -9.1128801465       -4.3625003749      -11.1831942184
 H        -8.1088771578       -4.7989263897       -9.0091795579
 H        -9.5694566922       -5.4283979813       -8.5922280834
 H       -10.3810995513       -4.2024285563       -3.8307974123
 H       -11.3372522279       -4.5186672366       -5.2572766463
 H       -11.4624969972       -1.6550449794       -4.4600045766
 H       -12.0307632468       -2.9866807548       -3.2875436034
 H       -16.0070861335       -0.5716877788       -6.9326501973
 H       -14.3486598674       -1.0506089904       -7.4842935828
 H       -14.8471402462        1.5132923234       -6.0217047546
 H       -14.4366772815        1.4065521907       -7.7840528654
 H       -11.8450143149        4.4501656653       -6.2476638023
 H       -11.5092608637        4.1928485987       -7.9708828922
 H        -9.8865016012        5.9533530744       -7.0417545370
 H        -8.9683835877        4.3483518157       -7.2019016261
 H        -6.9178093439        7.6588263854       -3.7061129017
 H        -8.3105474252        8.9926189351       -3.7833933039
 H        -7.1826033708        8.9697328002       -4.9257069333
 H       -11.7717854735        6.8071658547       -4.2982529537
 H       -11.0439122018        7.4255364414       -5.8152101796
 H       -10.7993754305        8.2664673123       -4.2932025806
 H       -10.2080919181        5.5429536256       -2.5530957723
 H        -9.3623648720        6.9631872903       -2.2449821021
 H        -8.4808061515        5.3807887637       -2.8898428134
 H       -12.5385425753        3.5306234398       -4.2220130146
 H       -13.7737973097        2.4838911253       -4.4896978121
 H       -13.6158187898        3.6057579830       -5.7625754395
 H       -10.9372631957        1.8460153055       -3.8633795369
 H       -10.7262695117        0.4513688690       -4.6906241582
 H       -12.3929078411        0.8051765380       -4.1244486276
 H       -16.4198697488       -2.9169549396       -5.4926292522
 H       -15.5429062588       -4.3872045277       -5.2212531735
 H       -14.9724130352       -3.5267087971       -6.6137054567
 H       -14.2599966138       -3.7852725903       -3.1925502620
 H       -15.7574721220       -2.8695108314       -3.1371505436
 H       -14.2313516941       -2.1261322171       -2.7481818144
 H        -8.0800961694       -5.8016890288       -6.9050504167
 H        -9.6404347937       -5.8130697696       -6.1456392175
 H        -8.2519100163       -5.3557769106       -5.2036640113
 H        -7.2479437863       -2.5516786863       -5.7153187187
 H        -7.1982582335       -2.3368476447       -7.3391909941
 H        -6.5430119881       -3.8001127013       -6.5959093473
 H       -13.9707148407       -4.0608553845      -10.2005416164
 H       -13.7372186577       -2.4883785130      -10.7757191491
 H       -12.7335729196       -2.9146607433       -9.4280509254
 H       -13.8046897031       -4.3874662569      -12.9030933704
 H       -13.4125492294       -5.6125796259      -11.6681902479
 H       -12.1773028487       -5.2781790938      -12.9571377884
 H       -13.9172032197        2.3683784232      -12.2584540931
 H       -12.8360865427        3.3987420086      -13.1868234506
 H       -13.1892174223        3.5436240627      -11.3964283656
 H       -10.7048400590        1.3744283324      -13.8500111849
 H        -9.6256055659        1.9391471060      -12.5440716022
 H       -10.5941962697        3.0694194639      -13.4427360859
 H        -5.3175147147        0.1050476281       -7.5422236724
 H        -6.2026290059        1.5479215674       -7.0435042930
 H        -4.6882971626        1.6255074775       -7.8791707046
 H        -4.8586531034        2.5368775537       -9.8158227735
 H        -6.5119237954        3.3187604058       -9.5080543916
 H        -6.0310539934        2.4169408561      -11.0278132912
 H        -2.7891389423       -3.2020334950      -10.6274033455
 H        -2.2019944150       -3.9367099526       -9.1282069540
 H        -1.1848190359       -4.0025917251      -10.5903711494
 H        -1.1960499509       -2.1435264212       -7.6863644090
 H        -0.1677534106       -1.0378914921       -8.1961357629
 H         0.3431558860       -2.7278178885       -8.2372906416
 H         5.3410994383        1.1804579982      -10.3217230218
 H         4.3983112203        2.3088851485      -11.2958791976
 H         6.1353527887        1.8868829555      -11.7504369077
 H         3.6568178130       -0.5557905447      -13.6939657781
 H         4.7835549827        0.7300646650      -14.1778323871
 H         3.1787936249        1.0881218546      -13.3448577497
 H         5.5579910954       -5.0744085385      -11.2314619233
 H         5.3275807540       -5.5912562358      -12.8790233037
 H         5.2495481682       -3.9180541154      -12.5838472796
 H         9.0358153476       -5.2201209778      -11.2144413197
 H         8.3917788617       -6.4894355245      -12.1225697701
 H         7.5650794114       -5.8988826743      -10.6614118306
 H         9.9964545839       -2.3500368066      -19.0727799815
 H         9.1924744154       -2.0529872816      -17.6003294556
 H         8.3398711040       -2.7631991540      -19.2587627626
 H         9.2201870266       -5.9846850467      -18.9878717469
 H        10.8725554006       -5.5519485920      -18.8480827451
 H         9.8076422881       -4.6031694765      -19.9790727670
 H        15.0492055922       -7.1435563770      -12.3628770874
 H        13.3890181483       -7.3900968152      -12.3091916052
 H        13.8724312839       -5.8296377585      -12.0692653261
 H        16.4202938327       -6.1343262434      -13.9851149086
 H        15.6682396191       -4.6856036483      -13.7059178957
 H        15.8711331121       -5.4274537556      -15.3708896352
 Na      -10.0250737856       -0.6713991005       -6.9428570908
 Na       10.4208352390       -3.3567467645      -13.6690478886
