232

 C        15.1317005625       -8.5692908932      -15.0649083294
 C        13.9712569365       -7.5850307774      -15.0722172431
 O        13.0747951761       -7.7557034440      -15.8839183637
 C        14.0189365915       -6.2358473554      -14.2862930010
 C        12.7926912540       -5.3509659772      -14.6175213007
 O        12.1999542963       -4.8428012663      -13.6862256684
 C        12.4780576549       -5.0562389275      -16.0617402511
 C        10.9973501500       -5.3466714673      -16.4601826905
 C        10.4011746258       -4.0275790586      -16.8099830198
 O        10.5736425974       -3.0696808855      -16.0955205530
 C         9.2697793118       -3.9517086875      -17.8893229127
 C         7.9674347977       -4.3618207037      -17.0198907170
 O         7.6356961843       -5.5178716447      -17.0772616710
 C         7.2294457184       -3.2782264030      -16.2455116830
 C         6.6020519945       -3.7981371627      -14.9261222781
 C         7.7007366488       -4.3682468980      -13.9495411130
 O         8.6964642543       -4.7719359930      -14.4598864464
 C         7.5263813421       -4.2947586069      -12.3280411594
 C         7.9704277480       -2.9457580933      -11.8745129185
 O         8.9918589540       -2.3877478084      -12.2765036160
 C         7.3289692656       -2.3588456814      -10.5958880352
 C         6.6699654800       -0.9584974168      -10.8626190347
 C         5.8959013845       -0.8054206201      -12.0842353591
 O         6.0927207036       -1.6160165298      -12.9624631484
 C         4.7790894129        0.2666905758      -12.3020029934
 C         3.6159561091       -0.3147030450      -11.2271789692
 O         3.9217416384       -0.7239756296      -10.1549922249
 C         2.2020639122       -0.5398635840      -11.6247972474
 C         1.2163501361       -0.8268466351      -10.4490314284
 C        -0.0850692454       -1.6882584353      -10.7353361298
 O        -0.5619607736       -1.8724469344      -11.8100756668
 C        -0.9193388105       -2.1925207582       -9.5628838866
 C        -2.1180861086       -1.0108461715       -9.4826442689
 O        -2.2089260825       -0.1977383551       -8.6121842193
 C        -3.1064244327       -0.9465302329      -10.6553035549
 C        -4.1055721291        0.2066618721      -10.6525554147
 C        -5.4805477926       -0.1225687929      -10.0906283871
 O        -6.0435284727       -1.2591301628      -10.1294293221
 C        -6.2116222214        0.9412005448       -9.2511147028
 C        -7.7404206138        0.6510578046       -9.1336661095
 O        -8.0646910950       -0.2622569099       -8.4134627950
 C        -8.7259757586        1.4138481776      -10.0033210379
 C       -10.1486494687        0.8546324257      -10.1812989640
 C       -11.2344203569        1.9007995386      -10.5920763934
 O       -11.5038597494        2.8707808116       -9.8989785726
 C       -11.8565018358        1.8063055434      -12.0283501473
 C       -12.5020243646        0.3670514996      -12.1510630369
 O       -13.2750314741       -0.0517707415      -11.3687071587
 C       -12.1503922132       -0.3699963903      -13.3984978400
 C       -12.5924424170       -1.8544011995      -13.2893589101
 C       -11.6509144872       -2.6606769058      -12.3493965732
 O       -10.4658044213       -2.3570652659      -12.4577527223
 C       -12.1603600195       -3.8242754738      -11.4086058210
 C       -11.1040182590       -4.6068397505      -10.5758300023
 O       -11.4497654133       -5.5380236399       -9.8869952512
 C        -9.7120205675       -4.0314365190      -10.4180966248
 C        -9.0468932974       -4.3487143923       -9.0900747496
 C        -9.3461285295       -3.3493426779       -8.0542998898
 O        -9.9532631086       -2.3135946070       -8.2760359456
 C        -8.8390331019       -3.8002016068       -6.5435680917
 C        -9.6275703167       -3.0082948571       -5.4769953102
 O        -9.3541556530       -1.8337788500       -5.3307170166
 C       -10.7423133681       -3.7112115652       -4.7524798085
 C       -11.9550203208       -2.9870643372       -4.1914794679
 C       -13.1083683039       -2.9462463323       -5.1982629190
 O       -13.0194407084       -3.2894769319       -6.3550902007
 C       -14.5537746451       -2.3848677786       -4.6890778757
 C       -14.5247216731       -0.9281190498       -5.1767527634
 O       -14.2711063604       -0.0153617505       -4.3828398416
 C       -14.8965011368       -0.6000540981       -6.6394700442
 C       -14.3118254487        0.8267555366       -6.9437777646
 C       -12.8403288830        0.8175981953       -6.5181932493
 O       -12.1579078883       -0.1047556577       -6.8869523564
 C       -12.1661516964        1.9699055528       -5.6230184109
 C       -11.0868035918        2.6294332153       -6.5663524275
 O       -10.0207987226        2.1048960705       -6.9549679666
 C       -11.3551664319        4.0286313909       -7.0526213606
 C       -10.2012312569        5.0258810327       -6.8057990938
 C        -9.8185008355        4.9442898171       -5.3143324619
 O        -9.8724892280        3.8351752908       -4.7807144015
 C        -9.6999968544        6.2533448803       -4.5441703017
 C        -8.6140916109        7.2122069236       -5.1218866282
 O        -8.3308242969        7.0320587049       -6.2755796772
 C        -7.7755034688        8.2923440391       -4.3118699964
 C       -11.1231589933        6.9158972841       -4.5491099588
 C        -9.3137755075        5.9427436294       -3.0751041229
 C       -13.2187432573        2.7801928837       -4.7889646499
 C       -11.2389211615        1.2432691810       -4.6185085766
 C       -15.6973514109       -3.1534909812       -5.3438428200
 C       -14.8563811374       -2.4300862211       -3.2013002982
 C        -8.7657883270       -5.3027941442       -6.1803379533
 C        -7.2680391084       -3.2133545968       -6.5316635245
 C       -13.2381229440       -3.1959047216      -10.5296266147
 C       -12.8890475145       -4.9098947890      -12.2784332636
 C       -13.0392283488        2.6937477533      -11.9675757635
 C       -10.8397241032        2.2136738065      -13.1195509240
 C        -5.5509619826        0.7501885543       -7.7941716586
 C        -5.8699830954        2.4686265260       -9.6316218749
 C        -1.5055989856       -3.5546160353       -9.9511875971
 C        -0.1242113853       -2.2347296726       -8.1593796059
 C         5.0059501075        1.6214732125      -11.5347089021
 C         4.3798434974        0.2093073359      -13.7639845542
 C         6.0627102261       -4.6900087525      -12.0381714879
 C         8.5391601283       -5.2235669853      -11.6272860582
 C         9.1349619539       -2.4918945631      -18.4257317985
 C         9.3594735716       -4.9620794055      -19.1237745669
 C        14.0899849377       -6.4842060983      -12.7091535673
 C        15.3410449088       -5.2886816464      -14.5208736029
 H        15.6195471990       -8.4677152313      -14.0776402848
 H        15.7958278623       -8.2886367616      -15.9356976424
 H        14.7320436232       -9.6010917034      -15.3322368218
 H        13.1398674115       -5.5952389794      -16.7220270756
 H        12.5857336060       -3.9461272964      -16.2876024538
 H        10.3131035576       -5.7888612984      -15.6801076351
 H        10.9704124303       -6.1352614110      -17.2332911009
 H         6.3429884786       -2.9353000074      -16.8948065985
 H         7.7741110829       -2.4113149906      -16.0873621483
 H         5.7908814099       -4.5609775313      -15.0300661714
 H         6.2338921620       -2.8789969602      -14.4772405520
 H         8.1186758101       -2.3640581090       -9.8525658086
 H         6.6184871285       -3.1217811151      -10.2105308328
 H         7.4557081205       -0.1435227967      -10.9012680212
 H         6.0151147166       -0.7653168854      -10.0134787137
 H         2.1055785484       -1.1925307867      -12.4357537775
 H         1.8872583535        0.4353871076      -12.1305765456
 H         0.8645632205        0.1478504669      -10.1166701152
 H         1.7080314399       -1.2453883304       -9.5184658042
 H        -3.6866831654       -1.9011422382      -10.8086194132
 H        -2.4108462297       -1.0192517424      -11.5064165918
 H        -4.3182392567        0.4470505956      -11.7267341622
 H        -3.6170022797        1.1112658471      -10.2214953629
 H        -8.3723514332        1.6741401343      -11.0292365516
 H        -8.7171118145        2.3482984190       -9.4262882572
 H       -10.5010455358        0.4522210014       -9.2639489728
 H       -10.0825367024        0.0319475310      -10.8764845566
 H       -11.0446528740       -0.4356236288      -13.5799142530
 H       -12.6061489575        0.0370926861      -14.3020412150
 H       -12.5383517808       -2.1760755328      -14.3441379232
 H       -13.6127715491       -1.8316146477      -12.9568021380
 H        -9.8174226612       -2.9470177557      -10.4534746898
 H        -9.1027096978       -4.2512712153      -11.2825216834
 H        -8.0470861957       -4.6813984171       -9.1387434716
 H        -9.5181872079       -5.3043176666       -8.7730439028
 H       -10.1319418681       -3.9707886164       -3.8796385574
 H       -11.0831914295       -4.6692780330       -5.1496964373
 H       -11.5323452862       -2.0390124436       -3.8953146405
 H       -12.1459447843       -3.6131236357       -3.3322174526
 H       -15.9902785985       -0.5561692368       -6.7017261684
 H       -14.5472402531       -1.2590732515       -7.4027648289
 H       -14.8654567619        1.5058614209       -6.3030840813
 H       -14.3110804012        1.0334101848       -8.0167976266
 H       -12.2283435888        4.4561724898       -6.6159754784
 H       -11.3907310512        3.7857616506       -8.1385292108
 H       -10.5136145646        6.0109967707       -7.1281528962
 H        -9.3368482679        4.7555819986       -7.3329916765
 H        -8.2482720971        8.4672304516       -3.2984618314
 H        -7.6721454141        9.0803929034       -5.0139990369
 H        -6.7409866476        8.0165633112       -4.1930703174
 H       -11.8460032094        6.3595544855       -4.0397580959
 H       -11.3468594674        7.2624087899       -5.5782418884
 H       -11.1228757556        7.9140475652       -4.0002744969
 H        -9.7972451426        5.0854969214       -2.6313619579
 H        -9.4725416948        6.7258552489       -2.3903040101
 H        -8.2584925219        5.7898755585       -3.0288905012
 H       -12.8894816801        3.7205803059       -4.3406418863
 H       -13.5693817284        2.1851507411       -3.9792037903
 H       -14.0935864259        3.0201596823       -5.3685400908
 H       -10.8451619422        2.0338094138       -3.9547165228
 H       -10.2886097538        0.9102999594       -4.9970355732
 H       -11.7704494910        0.4852729180       -4.0285323832
 H       -16.7135415197       -2.7823934366       -5.0829912880
 H       -15.5855063207       -4.1610591612       -5.0375170489
 H       -15.5352404511       -3.2037336362       -6.4324134851
 H       -15.2317188510       -3.4554117697       -2.8426270726
 H       -15.7855986754       -1.8853260448       -3.0784824636
 H       -14.0075472756       -2.1347660723       -2.5505238831
 H        -7.9914727129       -5.8692165688       -6.6284711684
 H        -9.6566467207       -5.8255666813       -6.6110962756
 H        -8.7046778519       -5.4386025053       -5.1417118413
 H        -6.9955640078       -2.8070862094       -5.5940418297
 H        -7.1550542434       -2.2608220631       -7.1694224173
 H        -6.5472159452       -3.9848853314       -6.9521710011
 H       -14.1123408883       -2.8845302794      -11.1037403618
 H       -12.8615593200       -2.3524537640      -10.0240152819
 H       -13.3459280708       -3.9315745602       -9.6962319960
 H       -13.7827535075       -4.5060510427      -12.7111051325
 H       -13.1739853016       -5.7213275662      -11.7196578033
 H       -12.3315750195       -5.1296232565      -13.1662280636
 H       -13.3646876897        2.8187879983      -10.9472521875
 H       -13.8621645498        2.4906387046      -12.6869290063
 H       -12.6952918997        3.6931732794      -12.2651600035
 H       -11.3155574739        2.6011928082      -13.9535981543
 H       -10.3238593866        1.2905242833      -13.5117155203
 H       -10.0897276441        2.9050091047      -12.7827109426
 H        -5.7787919916       -0.2426610495       -7.3554196105
 H        -5.9425703150        1.6027244624       -7.1685368618
 H        -4.4500235899        0.8222518190       -7.8477889760
 H        -4.8383163647        2.6511770007       -9.6698552985
 H        -6.5004932055        2.9777844129       -8.8807190093
 H        -6.3602950470        2.7398882203      -10.5480504053
 H        -1.2372876246       -3.8046527491      -10.9894628331
 H        -2.5746305351       -3.4351028517      -10.0086279933
 H        -1.2071959594       -4.3573990265       -9.2888357346
 H        -0.7171834712       -2.6065643606       -7.2833793169
 H         0.0643461100       -1.1824326233       -7.8558290963
 H         0.9388521951       -2.6814078388       -8.2719370271
 H         4.7715105634        1.5471746614      -10.4806573606
 H         4.6051134605        2.4715176586      -12.1438675972
 H         6.0805826473        1.7082690561      -11.5332182049
 H         4.0899372443       -0.7938621974      -13.9903437907
 H         5.1625692826        0.4711628028      -14.4815835269
 H         3.4998350220        0.8410493661      -13.9396071767
 H         5.8735364522       -4.8221838941      -10.9644920014
 H         5.9015445091       -5.6998420979      -12.4378239335
 H         5.3579429472       -3.9268068680      -12.4422733530
 H         9.4835494304       -5.3957815164      -12.2252517498
 H         8.0585380028       -6.1569667478      -11.4714873746
 H         9.0132895821       -4.8634560530      -10.6919352017
 H        10.0942570961       -2.0693956912      -18.7434350674
 H         8.8493924216       -1.9175794475      -17.6222919181
 H         8.4477431128       -2.6262978018      -19.2174788882
 H         8.4822648262       -4.7227816937      -19.7032351239
 H         9.3099302521       -6.0197476324      -18.7952599300
 H        10.2182619334       -4.5795795871      -19.6716178312
 H        14.9015216759       -7.1317235174      -12.3755464535
 H        13.0943593801       -6.9864458632      -12.3765321761
 H        14.0038633925       -5.4625351251      -12.2478862367
 H        16.2786788166       -5.8289804531      -14.4432933860
 H        15.4011885809       -4.4592002434      -13.7497559977
 H        15.3590625113       -4.7772584790      -15.5225497174
 Na       -9.7299276871       -0.1621310990       -7.0262940606
 Na       10.5765548151       -3.3689444428      -13.8731767682
