232

 C        15.2398578110       -8.5297986627      -15.1496218979
 C        13.9270556829       -7.6024168807      -15.1555068226
 O        12.8732842715       -7.9000113994      -15.7293616222
 C        13.9736981256       -6.2149836741      -14.2600740208
 C        12.7715446325       -5.3506171327      -14.5849001403
 O        12.1115558459       -4.7636868504      -13.7138516133
 C        12.5345398759       -5.1077629705      -16.0829430211
 C        11.0782051920       -5.3183030775      -16.5767532241
 C        10.2516250978       -4.0336106417      -16.8561995362
 O        10.4784036886       -2.9838083506      -16.2080018036
 C         9.1459454185       -3.8651866070      -17.9478777096
 C         7.9104267522       -4.2716612136      -16.9465996828
 O         7.6459489245       -5.4657037007      -16.8542832566
 C         7.1761148599       -3.1656878891      -16.1182663221
 C         6.5698216495       -3.8732693677      -14.9018560113
 C         7.7196356444       -4.2797210243      -13.9918480840
 O         8.7523118784       -4.7110399345      -14.5351327393
 C         7.5935092127       -4.2937359993      -12.4871274201
 C         8.0905457886       -2.7946965804      -11.8948191108
 O         9.1076387505       -2.3859199418      -12.4034893025
 C         7.4226713243       -2.1334096681      -10.6186921379
 C         6.8162000478       -0.7618940261      -10.8276774725
 C         5.9368882524       -0.8493264878      -12.0659838903
 O         6.0548136209       -1.7044837122      -12.9178270834
 C         4.7219442849        0.1593100298      -12.2734723792
 C         3.6103629424       -0.4632329726      -11.3372792358
 O         4.0063231164       -0.6629540308      -10.1924197265
 C         2.0484510472       -0.5151338013      -11.7077229984
 C         1.3255582999       -0.8048713407      -10.4506089294
 C         0.0660471137       -1.5852373331      -10.6315598500
 O        -0.2666391659       -1.7955774792      -11.8210974184
 C        -0.9802632701       -2.1025811493       -9.5115813117
 C        -2.1065081973       -1.0915029148       -9.4379129010
 O        -2.1079504186       -0.2765480834       -8.5557648561
 C        -3.1336619301       -1.1169051599      -10.6709560374
 C        -4.0983031280        0.1317086271      -10.6064740694
 C        -5.4789320309       -0.1945201847      -10.0062423230
 O        -5.9996747906       -1.2116353440      -10.2862584007
 C        -6.1806937432        0.9458984405       -9.0797387178
 C        -7.6792198207        0.6373179502       -9.1233559984
 O        -8.0285914318       -0.3363787550       -8.4723413309
 C        -8.7612156454        1.4492183467      -10.0035425119
 C       -10.1378468556        0.7668753770      -10.2690395472
 C       -11.1378896030        1.9039603449      -10.5871969527
 O       -11.3538966237        2.7718329161       -9.7803830009
 C       -11.8990447961        1.8727021712      -12.0262229659
 C       -12.4493064149        0.3648552154      -12.2501717909
 O       -13.2025238792       -0.0223700808      -11.3552375037
 C       -12.1681214707       -0.6062424903      -13.5821356879
 C       -12.6580911724       -2.0701789699      -13.3727592595
 C       -11.5395335729       -2.7334938398      -12.4669696136
 O       -10.3858558462       -2.3651011312      -12.5886784280
 C       -12.1686669109       -3.7827106318      -11.4939908667
 C       -11.1493661744       -4.4878916015      -10.4882295215
 O       -11.5487482686       -5.4754898149       -9.8819279824
 C        -9.6725679895       -3.9891091352      -10.3521373092
 C        -9.0072605779       -4.4458897319       -9.0693389357
 C        -9.3075011243       -3.4569735496       -8.0080340448
 O        -9.8411351234       -2.3420159335       -8.2439817066
 C        -8.7684086184       -3.7820777662       -6.5598222573
 C        -9.6437990395       -3.0170596304       -5.4892720865
 O        -9.5266893131       -1.8121048169       -5.4401789911
 C       -10.6334233390       -3.8424296302       -4.6149468623
 C       -11.9833889081       -2.9659640800       -4.1460820799
 C       -13.1839815940       -2.9485226503       -5.0797722079
 O       -13.1394875513       -3.3398209325       -6.2274531655
 C       -14.6362751304       -2.3126432517       -4.6309216075
 C       -14.6488842032       -0.8352834121       -5.1099013552
 O       -14.3280701674        0.0639478191       -4.3350251463
 C       -14.8947520291       -0.5796206827       -6.5671849868
 C       -14.2813919653        0.8514965266       -6.8879718726
 C       -12.7112274774        0.7987510210       -6.5214095365
 O       -12.1137858135       -0.2046644358       -6.8639345504
 C       -12.0970397302        1.8440946796       -5.5986822223
 C       -11.0931507356        2.6945052196       -6.5242786039
 O       -10.0669324740        2.1858847575       -6.9487836593
 C       -11.5772251214        4.1335439378       -7.1037340981
 C       -10.3695432108        5.0835075049       -6.8263742872
 C        -9.9314777867        5.0181877334       -5.3510797126
 O        -9.7702858656        3.9227760694       -4.7915091197
 C        -9.7018452125        6.2960491858       -4.4967577900
 C        -8.6220386741        7.1810325789       -5.1686835852
 O        -8.2499367772        6.9362713667       -6.2916673547
 C        -7.8927619554        8.2743297216       -4.3687660800
 C       -11.1601459583        6.8916577438       -4.4487107484
 C        -9.2767569567        5.8573691520       -3.0431119070
 C       -13.1165915078        2.7503684740       -4.9461610832
 C       -11.3522806436        1.1204743069       -4.4220921134
 C       -15.7967458853       -3.1242882957       -5.4300378223
 C       -14.8448137630       -2.4183754792       -3.0546445103
 C        -8.6941344510       -5.2666624521       -6.3865038505
 C        -7.2935895588       -3.1548073554       -6.4776292343
 C       -13.2713676900       -3.1241822391      -10.5411101932
 C       -12.8508569842       -4.8951905633      -12.2946964670
 C       -13.2058347368        2.8415846270      -11.9703203835
 C       -10.9041676838        2.2312765617      -13.0915401625
 C        -5.5651226321        0.7492950707       -7.6225053034
 C        -5.8358570908        2.3624617119       -9.6561197872
 C        -1.5091641952       -3.5943036152       -9.7889366015
 C        -0.1648101993       -2.2202525196       -8.1717684496
 C         5.0418210321        1.6366945321      -11.6537489624
 C         4.3197439236        0.2026559748      -13.7320612794
 C         6.1484193941       -4.6764818842      -12.0950077433
 C         8.6135426511       -5.3025078337      -11.7609957952
 C         9.0356385531       -2.4234763406      -18.3884079347
 C         9.3785758032       -4.9469869757      -19.0454416235
 C        14.1722754643       -6.6042362251      -12.7306301318
 C        15.0944870539       -5.3988323151      -14.6864634158
 H        15.7590346525       -8.5222421852      -14.2058233249
 H        15.8255977273       -8.1683913964      -15.9976535224
 H        14.9209649324       -9.4943277440      -15.4768920157
 H        13.3005982042       -5.6177239333      -16.7103581924
 H        12.6802387323       -4.0039870543      -16.1882744734
 H        10.5700839790       -5.9197684115      -15.7391133925
 H        11.0307577741       -6.0040106931      -17.3807425058
 H         6.3135390584       -2.7125896914      -16.6307069438
 H         7.8579809676       -2.2444758596      -15.8385526357
 H         6.0671931625       -4.8559533063      -15.1104031244
 H         5.8440921186       -3.1148568898      -14.3323242256
 H         8.1836826634       -2.2140917421       -9.8843156307
 H         6.7279976417       -2.8698565948      -10.2711336691
 H         7.5762582607        0.0122697051      -10.9843622966
 H         6.1942575517       -0.5216025663       -9.8962857695
 H         1.8373088054       -1.3214584496      -12.4344353311
 H         1.7295485303        0.3774102849      -12.2987761674
 H         1.0939245192        0.0829124224       -9.8277335279
 H         1.9840302872       -1.4205293050       -9.7586919968
 H        -3.6910216647       -2.0350067541      -10.6289348308
 H        -2.5379795975       -1.3090015192      -11.5914902174
 H        -4.2264695694        0.5163459497      -11.5948435847
 H        -3.5158980244        0.9074183718      -10.0426230455
 H        -8.4198634183        1.6614602143      -11.0890102011
 H        -8.8035833357        2.5022333422       -9.4567902086
 H       -10.5023764028        0.2714830654       -9.4322674396
 H       -10.0041793483       -0.0221571999      -11.0888320361
 H       -11.0797501951       -0.7271796477      -13.8833535388
 H       -12.7155835498       -0.2023561974      -14.4313946996
 H       -12.7312750109       -2.4889890610      -14.3977241040
 H       -13.6368884670       -1.9903722975      -12.9415531909
 H        -9.5464793401       -2.8982156916      -10.5192345742
 H        -9.1485040948       -4.4763012325      -11.1731379262
 H        -7.9474713471       -4.4589304725       -9.1488571059
 H        -9.1872265123       -5.5314483799       -9.0190903282
 H       -10.1028114947       -4.3823077962       -3.8695457290
 H       -11.0451215653       -4.6204729660       -5.3238811776
 H       -11.4660557747       -1.9714912043       -4.0489815110
 H       -12.2111096926       -3.4146201916       -3.1294653043
 H       -15.9328889294       -0.6933673555       -7.0536175267
 H       -14.2220766638       -1.2491936503       -7.0937091114
 H       -14.8171928583        1.5649137469       -6.2916486262
 H       -14.3396814231        0.9665628795       -7.9226940591
 H       -12.4055191190        4.5239742675       -6.5851728813
 H       -11.6941511490        4.0127351532       -8.0986977761
 H       -10.5839170114        6.1020230166       -7.0902114930
 H        -9.5164193092        4.7890774830       -7.4126591786
 H        -8.5838087616        8.6888765003       -3.6075501384
 H        -7.2991935265        8.8857462907       -5.0202829990
 H        -7.1068981062        7.7228094469       -3.7771485637
 H       -11.8574860575        6.2113579032       -3.9457600133
 H       -11.3737711278        7.2076389527       -5.4654332184
 H       -11.3237182491        7.7745302642       -3.9230954895
 H        -9.9307353350        5.0920095437       -2.6530470152
 H        -9.2303130936        6.6475380238       -2.2417875102
 H        -8.2411327376        5.4995128684       -2.9724599422
 H       -12.5404706751        3.5447236343       -4.3555223589
 H       -13.7593156351        2.2381101785       -4.2052481679
 H       -13.7669433578        3.3305524003       -5.5774957526
 H       -11.0408026453        1.8660897280       -3.7462903340
 H       -10.3997152284        0.5920976427       -4.6495157707
 H       -12.0837013827        0.4862411302       -3.8890636913
 H       -16.7699424896       -2.6347513814       -5.1026848345
 H       -15.7973330722       -4.2186052770       -5.1663510736
 H       -15.7515773000       -3.0614095783       -6.5306032591
 H       -15.3083876920       -3.4114928285       -2.7733378120
 H       -15.7004910981       -1.7658964443       -2.7337145733
 H       -13.9093551470       -2.2902548831       -2.4835517410
 H        -7.9947135652       -5.8583488403       -6.9955143778
 H        -9.6149201689       -5.6176929250       -6.7185544136
 H        -8.4757597793       -5.5530820122       -5.3520399430
 H        -6.9247529235       -3.2684625002       -5.4798441275
 H        -7.2784862552       -2.0528359402       -6.5783489233
 H        -6.6503129056       -3.5836735093       -7.2030086240
 H       -13.7862196465       -2.3099616754      -10.9808551761
 H       -12.7901351560       -2.7813650877       -9.6563677415
 H       -13.8298145416       -3.9474366898      -10.1610296588
 H       -13.8379847575       -4.6943871101      -12.7448897112
 H       -12.9706307666       -5.7326855913      -11.6510865239
 H       -12.3061402347       -5.1095672676      -13.1588564202
 H       -13.6066120853        3.0657180536      -10.9398896466
 H       -13.9919021487        2.5783504941      -12.7230997257
 H       -12.8638116141        3.7720782499      -12.4064203048
 H       -11.2880205087        2.7514122999      -13.9720588841
 H       -10.4839304179        1.2792142564      -13.4812144422
 H       -10.0943023234        2.7952440428      -12.6630699832
 H        -6.1703909492       -0.0466165024       -7.1248641887
 H        -5.5273271183        1.6612239230       -7.0503021367
 H        -4.5662650506        0.3221785348       -7.7107080081
 H        -4.7780782856        2.4557301614       -9.7603769834
 H        -6.3536610837        3.0532477307       -8.9718456515
 H        -6.3888885833        2.4701900442      -10.5526291615
 H        -1.0805030117       -3.7812781583      -10.8197180839
 H        -2.5841176201       -3.6333754335       -9.9696483990
 H        -1.1808784551       -4.3854290001       -9.1308831416
 H        -0.6719429237       -3.0062235496       -7.5859241094
 H        -0.2744416169       -1.3529867330       -7.5057258884
 H         0.9435093324       -2.3444476607       -8.3018067831
 H         5.0762458670        1.6581849460      -10.6171997988
 H         4.3729562533        2.3475398847      -12.2372687325
 H         6.0239335620        1.8606917208      -12.0193690931
 H         4.1993370385       -0.7463189956      -14.1769870492
 H         5.1972813062        0.6802595914      -14.2268605169
 H         3.4621831116        0.8272800183      -13.9902002572
 H         6.3186042686       -5.1458266574      -11.0780232129
 H         5.7391616279       -5.4872729694      -12.6881273908
 H         5.5148795923       -3.8978681179      -11.9319309645
 H         9.5571319746       -5.4734028287      -12.3090457298
 H         8.1148192416       -6.2528980533      -11.5310730459
 H         9.0683745461       -4.9360780724      -10.8600141836
 H         9.8645080245       -2.2294598822      -18.9317105507
 H         9.0516724515       -1.8214268772      -17.4903526455
 H         8.0931009476       -2.4039568836      -18.9777559521
 H         8.9457706338       -4.5245876028      -19.9346148283
 H         8.7525106482       -5.7929842639      -18.6804503690
 H        10.4138475074       -5.0924024099      -19.2135175050
 H        15.1688605184       -7.0868610127      -12.4922940680
 H        13.3757817914       -7.2891932658      -12.4061893257
 H        14.0321219719       -5.6874324068      -12.1940506185
 H        16.0527850171       -5.8765168908      -14.5261680247
 H        15.1441749769       -4.3945451569      -14.2161173882
 H        15.0186481385       -5.1857708172      -15.7218775829
 Na       -9.6799182301       -0.1094875266       -6.9950810003
 Na       10.4617128377       -3.2870091159      -13.8866960337
