232

 C        15.1500750855       -8.3378342776      -15.2599775653
 C        13.8464091288       -7.6548956443      -15.0853312596
 O        12.8245077487       -8.0693183319      -15.5159585532
 C        13.9627659909       -6.3027117316      -14.3307067170
 C        12.6660107289       -5.4064427969      -14.5876129910
 O        12.1023476556       -4.8126490719      -13.6912184907
 C        12.4275152927       -5.0053312279      -16.0828604992
 C        11.0445208335       -5.1755392795      -16.6453976032
 C        10.2857420071       -3.9033641452      -16.8608288381
 O        10.5134670299       -2.8938378682      -16.1674890340
 C         9.0425856656       -3.8346756857      -17.9045424398
 C         7.8467982737       -4.2823304947      -16.9656204753
 O         7.5302257393       -5.4233180759      -16.7247987513
 C         7.1421434229       -3.2248612442      -16.1550527854
 C         6.5287103136       -3.9645954343      -14.8950778352
 C         7.7572840881       -4.3212625645      -13.9985336729
 O         8.8638056737       -4.5758840120      -14.4962685174
 C         7.6676737818       -4.2418100762      -12.4054135528
 C         8.1532492047       -2.7678975872      -11.9314021540
 O         9.1166240180       -2.2194932534      -12.4240548557
 C         7.5498083609       -2.0783483093      -10.7459059747
 C         6.9926689466       -0.6697153798      -10.9720259132
 C         5.9332814419       -0.8035602828      -12.0701544565
 O         6.1171314956       -1.7640151950      -12.8161384532
 C         4.7386259468        0.1232289194      -12.3401816608
 C         3.6152428492       -0.3613162160      -11.2773393714
 O         3.9283149391       -0.7390944654      -10.1463427961
 C         2.1193256764       -0.5084738146      -11.6038758368
 C         1.3632197733       -0.8400688640      -10.3065085403
 C         0.0803185500       -1.5731554220      -10.6898261407
 O        -0.1252965257       -1.8203531929      -11.8836790241
 C        -0.8309684325       -2.1467898230       -9.5281466600
 C        -2.0657940345       -1.1797016390       -9.4352313394
 O        -2.1530039139       -0.3004091420       -8.5718464447
 C        -3.1314289362       -1.1989590571      -10.4719065430
 C        -3.9815521406        0.0855914868      -10.4919093696
 C        -5.3935497127       -0.2080752775      -10.0360108115
 O        -6.0079793446       -1.1707627913      -10.3525975723
 C        -6.1166386215        0.9140204232       -9.0915905187
 C        -7.6628779050        0.5391467111       -9.1212494814
 O        -8.0923133430       -0.4241360875       -8.4968134448
 C        -8.6354536826        1.4638107289       -9.9461686076
 C        -9.9621352126        0.7436135439      -10.4135777957
 C       -11.1013405459        1.7656880056      -10.6441489114
 O       -11.2592707566        2.6572837754       -9.8229958843
 C       -11.8633309870        1.7620293637      -12.0999195357
 C       -12.5685092323        0.3434940250      -12.3388186846
 O       -13.1637441842       -0.2115924846      -11.3854916755
 C       -12.3080797780       -0.4320278661      -13.5621483726
 C       -12.5855901868       -2.0102276788      -13.4055814157
 C       -11.6163899269       -2.7248133164      -12.5070245950
 O       -10.4155770230       -2.5872935173      -12.6077222463
 C       -12.1492579427       -3.7945197229      -11.5166518332
 C       -11.1255591004       -4.4266629138      -10.5138726972
 O       -11.5520922978       -5.3358291119       -9.8371537968
 C        -9.6891826520       -4.0152901015      -10.4968336681
 C        -9.0250229812       -4.4675926308       -9.1211259732
 C        -9.1968114719       -3.4080381805       -7.9576336889
 O        -9.7725130513       -2.3852170811       -8.1528694643
 C        -8.7199826565       -3.7858005461       -6.4462496461
 C        -9.8083910198       -3.0166052995       -5.5865123769
 O        -9.8210018535       -1.7949626834       -5.3499068411
 C       -10.7919105071       -3.8038334750       -4.6906171968
 C       -12.0059941570       -2.8831216247       -4.1381621986
 C       -13.2787490727       -3.0103498574       -4.9935783411
 O       -13.1785432587       -3.4336516136       -6.1224337846
 C       -14.7044623172       -2.3427235519       -4.5338353980
 C       -14.6150181914       -0.8368254360       -5.0032971503
 O       -14.4580777044        0.0454155899       -4.2031878464
 C       -14.7700484788       -0.5335750259       -6.5021359526
 C       -14.1231628372        0.8119458221       -6.9029073270
 C       -12.6767497803        0.6937847093       -6.4324070923
 O       -12.0033854508       -0.2083546355       -6.9347881045
 C       -12.0745384133        1.8686804992       -5.5243349996
 C       -11.1487435404        2.7017989965       -6.5010935045
 O       -10.1666553445        2.2261333354       -7.0167998286
 C       -11.5770509445        4.1110445386       -6.9593153631
 C       -10.4541097332        5.1427783339       -6.7654924425
 C        -9.9734714767        5.0054395951       -5.3275430735
 O        -9.7445012970        3.9269828099       -4.8764955001
 C        -9.7701050979        6.2890977471       -4.4696770309
 C        -8.5937993258        7.1087508830       -5.2038911818
 O        -8.2184730521        6.8688079635       -6.3546487068
 C        -8.0593321880        8.2496933578       -4.3651617247
 C       -11.1045342224        7.0257194841       -4.2877758946
 C        -9.2921768294        5.8603398852       -3.0760419646
 C       -13.0891534461        2.8457908516       -5.0282189604
 C       -11.4003226018        1.0697240854       -4.3667570951
 C       -15.7286873213       -3.0746630317       -5.3229551311
 C       -14.8260095921       -2.4139478304       -3.0284983849
 C        -8.6009571471       -5.3280675502       -6.4082255744
 C        -7.3601603234       -3.1268169220       -6.4025946780
 C       -13.1990789289       -3.0719329757      -10.5208589175
 C       -12.7841983352       -4.8734276483      -12.3559419356
 C       -13.1233111240        2.8371107421      -12.0080912156
 C       -10.8999163425        2.3203732554      -13.1179085478
 C        -5.6576056767        0.7739482907       -7.6414014006
 C        -5.7914606385        2.3278999110       -9.6508531717
 C        -1.4022802980       -3.5722092542       -9.8223183922
 C        -0.2061429432       -2.1360933569       -8.0862103910
 C         5.1051907016        1.5578366666      -11.9097246071
 C         4.2170169863        0.2610663667      -13.7471926121
 C         6.2198005570       -4.6035286028      -11.9837494805
 C         8.6453870061       -5.2926200203      -11.9859197517
 C         8.9413414481       -2.3831077465      -18.4446043960
 C         9.2401328738       -4.8991196227      -19.0091335762
 C        14.1116830129       -6.7288148073      -12.8265281481
 C        15.1855025483       -5.4898204380      -14.9226638221
 H        15.6739736863       -8.4192976647      -14.3405320612
 H        15.6485122487       -7.8221235372      -16.0197907250
 H        14.9043598013       -9.2841368964      -15.6319031801
 H        13.0961399519       -5.7095317572      -16.6428972125
 H        12.7949132380       -4.0104776429      -16.2307865254
 H        10.6010323535       -5.9035816650      -16.0098745800
 H        11.1283145401       -5.7214713728      -17.5994214152
 H         6.3412743032       -2.5894535813      -16.5324915527
 H         7.9774848476       -2.4634524833      -15.8379350501
 H         6.2383141929       -5.0269149590      -15.1327867944
 H         5.7390558144       -3.4704399296      -14.3746402466
 H         8.4800901450       -1.9917300168      -10.1753569780
 H         7.0314951159       -2.7638801238      -10.1457967315
 H         7.8065185112       -0.0674897999      -11.3631371460
 H         6.6994985419       -0.3226610421       -9.9633666021
 H         2.1159669718       -1.4067248222      -12.3476840585
 H         1.6925830017        0.2590731539      -12.2000112359
 H         1.1237025323        0.0559056852       -9.6826262128
 H         1.8963084283       -1.4621527522       -9.6238282712
 H        -3.6895768997       -2.0928637469      -10.3295577608
 H        -2.6877210160       -1.4261585378      -11.4336417963
 H        -3.8350138019        0.4033844288      -11.5090320817
 H        -3.5030895322        0.8105561859       -9.8787391231
 H        -8.1107255548        1.8245404013      -10.8735704686
 H        -8.8335752706        2.4010558069       -9.2937759588
 H       -10.2429426047        0.1474067817       -9.4466446485
 H        -9.8391238599       -0.0147871078      -11.2061939957
 H       -11.2789751963       -0.3205863997      -13.8400872848
 H       -12.9475268619       -0.0222089265      -14.3871136099
 H       -12.4461201561       -2.4414181230      -14.3898511580
 H       -13.6588750255       -2.0900633717      -13.1082488187
 H        -9.6541488199       -2.9145074890      -10.6522219233
 H        -9.1591302811       -4.5007694952      -11.3496653904
 H        -7.9122928456       -4.6267322879       -9.2659167044
 H        -9.3031896050       -5.5047183604       -9.0690826360
 H       -10.1391673848       -4.2663756517       -3.9147038320
 H       -11.2592417846       -4.6428849905       -5.2028738263
 H       -11.4583917232       -1.8984348231       -4.0732824429
 H       -12.1282397249       -3.3366587993       -3.1296226351
 H       -15.8174062674       -0.3212870211       -6.7711977687
 H       -14.3954781275       -1.3535222645       -7.2115675440
 H       -14.6680290677        1.5209050189       -6.3243468768
 H       -14.1839213663        0.9005206255       -7.9779389038
 H       -12.3731490514        4.5070653689       -6.3646133527
 H       -11.7873513071        4.1233965159       -8.0300361868
 H       -10.8830664868        6.1290375654       -6.9726808962
 H        -9.6382790971        5.0092143519       -7.5484743227
 H        -8.8910996613        8.8965961868       -4.1496815521
 H        -7.1072288787        8.6908768942       -4.8176735597
 H        -7.7248607575        7.8173778355       -3.4017642040
 H       -11.8350334976        6.3706041116       -3.7702035732
 H       -11.3902207953        7.4828795516       -5.1688856375
 H       -11.1245204551        7.8365836899       -3.6207939787
 H       -10.0642724956        5.2661937679       -2.5462564685
 H        -8.9411134437        6.6641225705       -2.3433801700
 H        -8.3408331804        5.2630453555       -3.0773469752
 H       -12.6137998183        3.5651729127       -4.3464766764
 H       -13.9070343359        2.3564856008       -4.4210963711
 H       -13.6198864620        3.5222753603       -5.7562879231
 H       -10.9189526959        1.6169772203       -3.5446348352
 H       -10.6785564084        0.3593324310       -4.7636846917
 H       -12.2314361196        0.5433720147       -3.9129265017
 H       -16.6364224651       -2.4774680731       -5.1385726233
 H       -15.8756614384       -4.1880871137       -5.1025438151
 H       -15.5675521653       -2.9474536322       -6.4142870049
 H       -15.1052842913       -3.3513197227       -2.6387949789
 H       -15.6521086794       -1.7642308300       -2.6759445268
 H       -13.8438801842       -2.0852125666       -2.6528014746
 H        -7.9531400046       -5.7116891725       -7.2105449436
 H        -9.5577555499       -5.8093603206       -6.6108585105
 H        -8.0367386330       -5.6645711572       -5.5089282474
 H        -6.6769019426       -3.6762168167       -5.7188322511
 H        -7.3794365592       -2.2065621994       -5.9991649635
 H        -6.9581389897       -3.0746432143       -7.3569153386
 H       -13.2352587610       -2.0897264151      -10.9113700912
 H       -12.8473642436       -3.0174371996       -9.4716911902
 H       -14.0928405719       -3.5801024772      -10.5097814570
 H       -13.6575672609       -4.6187751316      -12.9326128447
 H       -13.0630561948       -5.7290897916      -11.6461270250
 H       -12.1312673491       -5.2019400167      -13.1823361695
 H       -13.6276475323        2.8308504981      -11.0095827580
 H       -13.8198737082        2.6102395740      -12.7926177601
 H       -12.8299216486        3.8737679329      -12.3276435707
 H       -11.4644968101        2.7360552041      -14.0322214684
 H       -10.1592114839        1.6719711988      -13.4836224774
 H       -10.4521308564        3.1963500322      -12.5952144487
 H        -6.4547568870        0.2447024578       -7.1603500076
 H        -5.4862658670        1.7035799086       -7.1651964457
 H        -4.7821922136        0.1548193421       -7.5264661940
 H        -4.6822790778        2.4115709146       -9.4954828117
 H        -6.3398657115        3.0414992617       -9.1374642268
 H        -6.1418472854        2.3331491965      -10.6922473605
 H        -1.1957449919       -3.8327125436      -10.8637582861
 H        -2.5187237250       -3.5708215393       -9.7393280890
 H        -1.0141745659       -4.4178748573       -9.1881364474
 H        -0.6975872692       -2.9033534491       -7.5331736424
 H        -0.5297564968       -1.2227629537       -7.5648371205
 H         0.8222366598       -2.1044230343       -7.9806800733
 H         5.5519107437        1.5521388913      -10.9005565251
 H         4.2250810003        2.0272802934      -12.0106724693
 H         5.7646338388        2.0202176059      -12.6631178053
 H         4.1258151837       -0.6897971965      -14.3442089457
 H         5.0307794936        0.8101656886      -14.2307932939
 H         3.3486586005        0.8789689963      -13.9401876721
 H         6.1410328892       -5.1732866698      -11.0952370442
 H         5.8584667623       -5.2476480741      -12.7575618195
 H         5.6016167918       -3.7027719615      -11.7871653980
 H         9.5644468331       -5.1562566433      -12.4458602320
 H         8.1991685268       -6.3082728716      -12.1239620254
 H         9.0125560041       -5.2651048142      -10.9829246996
 H         9.6063506403       -2.5376221770      -19.3068591925
 H         9.4026920472       -1.6572331415      -17.7090659794
 H         7.8924370617       -2.2134184241      -18.7355701764
 H         9.0510589810       -4.2764727647      -19.8843338745
 H         8.4722058920       -5.5964717993      -18.8902949128
 H        10.2571253601       -5.2921676649      -19.1059657769
 H        15.1939666447       -6.9337003107      -12.6553566779
 H        13.5639053494       -7.5606660441      -12.5492232616
 H        13.9164020528       -5.8349367485      -12.2479802111
 H        16.1651754413       -5.7953504503      -14.5911899352
 H        15.0732598368       -4.4591010869      -14.7167348989
 H        15.1651936628       -5.4434766675      -15.9855468220
 Na       -9.7439790696       -0.1567153486       -6.9441288025
 Na       10.3899388699       -3.2048670576      -13.9706827821
