232

 C        15.1813950611       -8.3810080981      -15.4585264694
 C        13.7841402471       -7.7485135499      -15.1673210709
 O        12.6788191839       -8.2071139236      -15.3010797684
 C        13.8982626402       -6.2531783305      -14.4002886912
 C        12.7283843060       -5.3372923966      -14.6006893757
 O        12.0738215468       -4.9455206112      -13.6707529123
 C        12.4000451849       -4.9288092604      -16.0689105486
 C        10.9458027119       -5.1498717578      -16.6510350875
 C        10.3050967821       -3.7774959605      -16.8575186966
 O        10.5337427162       -2.7626532143      -16.2295444571
 C         9.0383388729       -3.8354927668      -17.9005620818
 C         7.8465723384       -4.3056264555      -16.8835136722
 O         7.5464814913       -5.4612330904      -16.9722281701
 C         7.0431424616       -3.2576872804      -16.1026968204
 C         6.5173072653       -3.8769196125      -14.8027736410
 C         7.7442691262       -4.2246073850      -13.9961829397
 O         8.7978921200       -4.4726974839      -14.5139191315
 C         7.7271327033       -4.1797281650      -12.4126264041
 C         8.2307984143       -2.7325952756      -11.9264660112
 O         9.0854385372       -2.1489560888      -12.5736792699
 C         7.6662197118       -2.0146581744      -10.5825019683
 C         7.1054255507       -0.6275928491      -11.1673306788
 C         6.0018008195       -0.8518758842      -12.2227223648
 O         6.0827653208       -1.8415983813      -12.9314283405
 C         4.7434755991        0.2385346689      -12.2823899453
 C         3.6741472290       -0.3780340811      -11.1167862861
 O         4.1299328603       -0.7404672775      -10.0730625393
 C         2.2303845592       -0.4726307478      -11.5261015294
 C         1.3611243462       -0.8380518086      -10.2770065649
 C         0.0844234890       -1.7450599997      -10.6527385295
 O        -0.2290623216       -1.9331721165      -11.7734891616
 C        -0.8219584388       -2.1854799089       -9.4637295485
 C        -2.0393525636       -1.1267406733       -9.4407071378
 O        -2.0898187693       -0.3415475377       -8.5090857867
 C        -3.1904174424       -1.2841348739      -10.4705913601
 C        -3.9464106372        0.0487100038      -10.4195565457
 C        -5.3772560572       -0.1946953375      -10.0136265003
 O        -6.0066863114       -1.2125787332      -10.4352054238
 C        -6.1583474907        0.8681684648       -9.1653788575
 C        -7.6766042299        0.5493676370       -9.2412561834
 O        -8.0242795084       -0.3750779178       -8.5352173779
 C        -8.6030788464        1.4179764562       -9.9353955204
 C        -9.7932836533        0.7205180924      -10.5824580390
 C       -10.9998839236        1.7226285322      -10.7842434730
 O       -11.2868576246        2.5538576182       -9.9354064231
 C       -11.8094030741        1.7113320479      -12.0536380958
 C       -12.4687042930        0.2647929067      -12.2488136380
 O       -13.1628956359       -0.1663083049      -11.3948671624
 C       -12.3442076725       -0.2990535110      -13.6582300383
 C       -12.5373167940       -1.8665105997      -13.5063216759
 C       -11.6044348143       -2.6412564965      -12.5553665261
 O       -10.3847984649       -2.6994127783      -12.7306357380
 C       -12.2013302246       -3.7421464007      -11.5168588114
 C       -11.1022524273       -4.4425693783      -10.5529632689
 O       -11.4934440632       -5.2451524990       -9.7484351889
 C        -9.5943290426       -3.9922393644      -10.4920549084
 C        -9.0115769524       -4.3910453054       -9.0799990427
 C        -9.3136227548       -3.3917946227       -8.0126845331
 O        -9.8023024513       -2.3295593463       -8.2388535314
 C        -8.7969457662       -3.7760929159       -6.5293253510
 C        -9.8716377860       -3.1224484660       -5.4845904176
 O        -9.8987072483       -1.8981945840       -5.4121070320
 C       -11.0522989372       -3.8666869538       -4.6989852437
 C       -12.0369742594       -2.9376000608       -4.1096082117
 C       -13.2427770357       -3.0005431788       -5.0254395095
 O       -13.2375983170       -3.5984198495       -6.0869647587
 C       -14.5787616384       -2.3054113404       -4.4752169051
 C       -14.5814666541       -0.8651881661       -4.9219466259
 O       -14.5685226043        0.0120034818       -4.0634427738
 C       -14.7799001977       -0.5729086902       -6.3871338353
 C       -14.1111632162        0.7478153064       -6.9188261791
 C       -12.6676088415        0.8052568777       -6.5556569123
 O       -11.8882143949       -0.0732021868       -6.8960482809
 C       -12.1248116757        1.8949309147       -5.5598396213
 C       -11.0224437241        2.6929058386       -6.4790547495
 O       -10.1764855700        2.0900147553       -7.1331087275
 C       -11.5401052947        4.0546243713       -6.9562779321
 C       -10.5422983329        5.2086969194       -6.7012363680
 C        -9.9792749014        4.9811681224       -5.2765799264
 O        -9.7670786054        3.8407585970       -4.8949759688
 C        -9.7693335664        6.2357291003       -4.4430401823
 C        -8.6675169561        7.1256540592       -5.1585620009
 O        -8.2639323363        6.8144038891       -6.2550929967
 C        -8.1336170116        8.3786189216       -4.4083796634
 C       -10.9519170110        7.2049406562       -4.2408227770
 C        -9.2734959990        5.7948976987       -3.0785551087
 C       -13.2699090901        2.7364396305       -4.8368920201
 C       -11.3592493870        1.1989899303       -4.4133305145
 C       -15.7797550360       -3.0954044759       -5.1666193762
 C       -14.8137254818       -2.4050129173       -2.9682481550
 C        -8.6083365194       -5.2760788642       -6.1965469112
 C        -7.4101747923       -3.0339391506       -6.2509835578
 C       -13.2522063691       -3.1167978800      -10.4996381412
 C       -12.8190302497       -4.8861709848      -12.3819677013
 C       -12.9770342367        2.6948946763      -11.8965741782
 C       -10.9397346094        2.2697864652      -13.1584083130
 C        -5.6687935529        0.7602332530       -7.6379254231
 C        -5.7911567684        2.3032962683       -9.6515829966
 C        -1.2477397231       -3.5529763712       -9.9502401871
 C        -0.1459991156       -2.0655305026       -8.0496974973
 C         5.1987113620        1.7010732076      -11.9498599379
 C         4.1452020344        0.1022108883      -13.7818822639
 C         6.3146106010       -4.4963077944      -11.8102433193
 C         8.7357963777       -5.2910935223      -11.9763441382
 C         8.8064018441       -2.3772481828      -18.4437011768
 C         9.0134976883       -4.8768916340      -19.0829747557
 C        14.0244278534       -6.6239907528      -12.9392102138
 C        15.2014523977       -5.5724245894      -14.9894234125
 H        15.5761152970       -8.4251584805      -14.4621377384
 H        15.7306871449       -7.8050166847      -16.1728499476
 H        15.0593296679       -9.4375087993      -15.7416125883
 H        13.0968145142       -5.4856397490      -16.6655444921
 H        12.6352342221       -3.8770884893      -16.2024205576
 H        10.4564579713       -5.8675835641      -16.0657772795
 H        11.0616691843       -5.6270663748      -17.6711343251
 H         6.0498899767       -3.0332188808      -16.5931315595
 H         7.5469138804       -2.3848405620      -15.9754722265
 H         6.1179261070       -4.8445630563      -15.0363347124
 H         5.7860924720       -3.3121353610      -14.3228279792
 H         8.4184286912       -2.0210013133       -9.7655925093
 H         6.8844087034       -2.6796200637      -10.1541516334
 H         7.9157517065       -0.0168244632      -11.5822414388
 H         6.6628557729       -0.1793804744      -10.3413226959
 H         2.1213822705       -1.0533796599      -12.4448176699
 H         1.9957081304        0.5402834743      -11.8519865741
 H         0.9701965500        0.0810980093       -9.8482332032
 H         1.9236287467       -1.2109783690       -9.4696631661
 H        -3.7439693339       -2.1866306914      -10.1555476005
 H        -2.9097692231       -1.5968781147      -11.4466211477
 H        -3.7154149329        0.4144939009      -11.4446707733
 H        -3.4415077895        0.6881573803       -9.7550209063
 H        -8.0545632605        1.9482812733      -10.6726355726
 H        -8.9540467579        2.1030575340       -9.2346602995
 H        -9.9925480493       -0.1455585470       -9.8127983385
 H        -9.5743855386        0.2308543277      -11.5117083040
 H       -11.4198547192       -0.1294566423      -14.1374574727
 H       -13.1517288072        0.2137179492      -14.2252443586
 H       -12.4195841846       -2.3937841284      -14.4517960136
 H       -13.5863913944       -1.9381020236      -13.1748601167
 H        -9.7504051032       -2.9075286262      -10.5211973837
 H        -8.9194026820       -4.3032472503      -11.3249074367
 H        -7.9531252416       -4.8168021585       -9.1289059875
 H        -9.5194547396       -5.3599573104       -8.9241182377
 H       -10.5847155224       -4.5432309913       -3.9194259149
 H       -11.5786021319       -4.5281754844       -5.3499566955
 H       -11.4887072268       -2.0009708143       -4.1147174666
 H       -12.1630790189       -3.2803380408       -3.1235543152
 H       -15.7874351892       -0.3976278454       -6.6463749872
 H       -14.4200566626       -1.4360191640       -7.0094672061
 H       -14.7095330428        1.5547773711       -6.4608090620
 H       -14.2348991411        0.6807246054       -8.0463367354
 H       -12.5323052687        4.2380781614       -6.4444332927
 H       -11.5886083301        4.0558598343       -8.1389145076
 H       -10.9365198803        6.2239709511       -7.0062778151
 H        -9.7494814647        4.9952528320       -7.4744079722
 H        -8.8203654430        9.2216660353       -4.7285440937
 H        -7.1221581291        8.5077313668       -4.8305374764
 H        -8.0685348754        8.3053513721       -3.3364856314
 H       -11.7334700686        6.7799893179       -3.6925086350
 H       -11.2663886002        7.8285770320       -5.0520058265
 H       -10.6585640658        7.9928570508       -3.4888820259
 H       -10.0924436751        5.2714909619       -2.4914001410
 H        -8.8607397844        6.5894784152       -2.4860118653
 H        -8.3894962704        5.1391488695       -3.0519503892
 H       -12.9805692341        3.6679307246       -4.4035428855
 H       -13.7036822037        2.1059424555       -4.0568970804
 H       -14.1389274790        3.0951804761       -5.4603455106
 H       -10.7845088178        1.9393470005       -3.7623502184
 H       -10.7145686393        0.4206296393       -4.7520935120
 H       -12.0791365607        0.8056064540       -3.7030584591
 H       -16.6537468411       -2.4570473316       -5.1322868091
 H       -15.9202597493       -4.0275184733       -4.6674287877
 H       -15.6176665811       -3.2756231542       -6.2455638395
 H       -14.8758970720       -3.4020285106       -2.5918454717
 H       -15.7818774852       -2.0361946149       -2.8532825458
 H       -14.1329259932       -1.7774877841       -2.4272357809
 H        -7.8555776532       -5.7371566989       -6.8234009179
 H        -9.4866611256       -6.0453132466       -6.2186840341
 H        -8.0345995058       -5.2123676603       -5.2939750976
 H        -6.7492272370       -3.7558170089       -5.8591501548
 H        -7.4672133664       -2.3009450358       -5.4523675955
 H        -6.9452863545       -2.5506879651       -7.1164636284
 H       -13.0687047062       -2.0350320212      -10.6049273332
 H       -13.1205963453       -3.4274910855       -9.4626033996
 H       -14.2751310753       -3.4102154078      -10.8622157524
 H       -13.5185016155       -4.5699414318      -13.1617366864
 H       -13.3188045231       -5.6478723951      -11.7422903128
 H       -12.0272699435       -5.3696483485      -13.0801127664
 H       -13.6437424292        2.3490041345      -11.1480452463
 H       -13.4529729357        2.6808504447      -12.8644210639
 H       -12.6640348913        3.7522735517      -11.8208708643
 H       -11.3918959191        2.1392053683      -14.1279318138
 H        -9.9638686235        1.7614065881      -13.1897704346
 H       -10.8139919583        3.3617849823      -12.9856885762
 H        -6.4145164696        0.3320197125       -7.0386999776
 H        -5.5094385982        1.7859792464       -7.3092778075
 H        -4.7235071849        0.2780055475       -7.5352301019
 H        -4.8358244213        2.4072273259       -9.1442852768
 H        -6.5053137322        3.0180668145       -9.2548760664
 H        -5.7838596709        2.3587687559      -10.7590068452
 H        -1.3858583842       -3.6376077052      -11.0120258228
 H        -2.1387462268       -3.9083980493       -9.3997399331
 H        -0.4399073264       -4.2483609572       -9.6311646934
 H        -0.5938388388       -2.6297168506       -7.2940695790
 H        -0.0835495839       -1.0478077997       -7.7537891543
 H         0.8793724569       -2.2926669933       -8.1457356037
 H         5.9771386784        1.6295051364      -11.1640335989
 H         4.2928078387        2.1960799914      -11.6088948023
 H         5.5237069270        2.2127811955      -12.8492803921
 H         4.0018712228       -0.9942874175      -14.0285984877
 H         4.7672738768        0.5448636089      -14.5672798789
 H         3.1828857004        0.6474008070      -13.9000141670
 H         6.2835960006       -4.7153273324      -10.7834957393
 H         5.9311220961       -5.3099667338      -12.4058202810
 H         5.6710495385       -3.5544078487      -11.8714705149
 H         9.7504277369       -4.9632259710      -11.8753099078
 H         8.5758390018       -6.1942181999      -12.4827483787
 H         8.5845447679       -5.5779384037      -10.9226877178
 H         9.3202961014       -2.5105364519      -19.4815678487
 H         9.2724977806       -1.6095885808      -17.7754231152
 H         7.7186747345       -2.2772361372      -18.5072936707
 H         8.6553062837       -4.2108818208      -19.8424393875
 H         8.3474511021       -5.6952141125      -18.9128954498
 H        10.0490111415       -5.1586833317      -19.3733432076
 H        15.0543770258       -6.7426388419      -12.8339875143
 H        13.5498448428       -7.5690586615      -12.7109004131
 H        13.8293984549       -5.7960125269      -12.2403916891
 H        16.0345250075       -5.9484530615      -14.4452124848
 H        15.1867709143       -4.4926697041      -14.9024613504
 H        15.4141702825       -5.5816760042      -16.0635264985
 Na       -9.7891619675       -0.2313433694       -6.9292747983
 Na       10.4935598934       -3.1219983986      -14.0364893362
