232

 C        14.9717957757       -8.4825845214      -15.6364510578
 C        13.7593385234       -7.7100744366      -15.1517751840
 O        12.6900741493       -8.3350920179      -15.1547851924
 C        13.9516102009       -6.3242372520      -14.4576415343
 C        12.6733427272       -5.3975351619      -14.7142582693
 O        11.9906470908       -4.9737206256      -13.7737754207
 C        12.4766418886       -4.8014900485      -16.1178402560
 C        10.9551363439       -5.0512495541      -16.6260028506
 C        10.1710017361       -3.8082641084      -17.0124672010
 O        10.4966980619       -2.7699460212      -16.4570859725
 C         8.9621159086       -3.7764440728      -17.9574536930
 C         7.7193549636       -4.2895799906      -17.0019072801
 O         7.4973802320       -5.4959260938      -17.0580029659
 C         6.9031124048       -3.3514194546      -16.1940913362
 C         6.4569607742       -3.9130978481      -14.8176507488
 C         7.7287967717       -4.0725356497      -13.8988710894
 O         8.6959740101       -4.4013035916      -14.5479437315
 C         7.7847321406       -4.1337990629      -12.2957353862
 C         8.2376751882       -2.7325531469      -11.9494931422
 O         9.0917833238       -2.1233622973      -12.6259900305
 C         7.6736945329       -1.9216826411      -10.7804592943
 C         7.0941364370       -0.5826730370      -11.2357347662
 C         6.0358426113       -0.7490319203      -12.2318453974
 O         5.9707472740       -1.6634976145      -13.0264596410
 C         4.8500939285        0.1355192233      -12.2145875816
 C         3.8947202229       -0.3785914756      -11.1126501259
 O         4.3995152197       -0.6784062298      -10.0728746745
 C         2.3124336529       -0.3373582167      -11.4238732775
 C         1.3615236753       -0.7389347769      -10.2804984171
 C         0.1109320054       -1.6215044710      -10.6239371131
 O        -0.2291874101       -2.0190938656      -11.7360039289
 C        -0.7329433977       -2.1941705931       -9.4300764097
 C        -2.0087876965       -1.2689185109       -9.2952169530
 O        -2.0087363387       -0.3542632084       -8.5204476503
 C        -3.1041905822       -1.2876218690      -10.4257309938
 C        -4.0075641872        0.0555043492      -10.4299848869
 C        -5.4496703850       -0.2460710739      -10.0834513756
 O        -6.0006061839       -1.2560704934      -10.4654086913
 C        -6.0771137747        0.9256900652       -9.1463822061
 C        -7.6678502378        0.6226043929       -9.1518344929
 O        -8.0082628903       -0.3639363134       -8.5544540319
 C        -8.6343825348        1.4778322923       -9.9898213088
 C        -9.7611670332        0.7614616443      -10.7093166246
 C       -10.9308759197        1.7380954954      -10.7918283569
 O       -11.1497538065        2.4378530818       -9.8401268106
 C       -11.8278244176        1.7708476932      -12.0964895733
 C       -12.4139276319        0.3381902421      -12.3022050273
 O       -13.0962772122       -0.0796812919      -11.4015680246
 C       -12.2915539632       -0.4686871591      -13.6116157292
 C       -12.6008747975       -1.9669288375      -13.5148661581
 C       -11.5588292341       -2.7760448496      -12.6476431349
 O       -10.3788422774       -2.6339043767      -12.8980661491
 C       -12.1564130281       -3.6720495444      -11.5287984057
 C       -11.1262514056       -4.2723901897      -10.5219603407
 O       -11.4528822896       -5.2021421065       -9.7753941954
 C        -9.6138156989       -3.9131323501      -10.3701604212
 C        -9.0421714744       -4.3929184004       -9.0516945292
 C        -9.3680715657       -3.4509075647       -7.9742287407
 O        -9.8626428813       -2.3337618994       -8.2745098084
 C        -8.8594757772       -3.7304093480       -6.3921307208
 C        -9.9463270454       -3.1559007655       -5.4975241523
 O        -9.9376997843       -1.9525266521       -5.3566884298
 C       -10.9058523765       -4.0204778542       -4.7837147835
 C       -12.0480725691       -3.1145112081       -4.1421675164
 C       -13.3169588745       -3.0816170069       -4.9497494059
 O       -13.3616678665       -3.6386147648       -6.0355489907
 C       -14.6326784037       -2.3571014345       -4.4095295595
 C       -14.6554207148       -0.8108899178       -4.8644136090
 O       -14.6101776125        0.0551083798       -3.9915158056
 C       -14.8208136883       -0.6375190131       -6.3702246011
 C       -14.2014934287        0.7247228201       -6.9343778331
 C       -12.7340040353        0.8207139546       -6.4626531874
 O       -11.9932636160        0.0126373832       -6.9674791679
 C       -12.1015798570        1.8857309195       -5.5382566237
 C       -11.2215395977        2.6447422089       -6.6143091865
 O       -10.2340232033        2.0342051796       -7.0060571103
 C       -11.5685743508        4.0169679094       -7.1789921663
 C       -10.5793371467        5.1974094452       -6.6967926811
 C       -10.0941940030        5.0454295404       -5.2273573855
 O        -9.8472651407        3.8877591621       -4.8489031936
 C        -9.6677138931        6.2837308200       -4.2603896389
 C        -8.5892637689        7.1586991282       -5.0912659170
 O        -8.2735965031        6.7950352073       -6.1846091171
 C        -8.1734149741        8.5084899220       -4.5365578848
 C       -10.8532817091        7.2777877083       -4.2362835074
 C        -9.1887577089        5.6760035260       -2.9115784079
 C       -13.2181451104        2.6616668003       -4.8128252132
 C       -11.1934406229        1.3222104582       -4.4244510517
 C       -15.9274195002       -3.1577365423       -5.0743562385
 C       -14.7094723770       -2.4449135387       -2.8523902065
 C        -8.7225236639       -5.2098773777       -6.0645500947
 C        -7.5940547295       -2.9093105415       -6.1657695193
 C       -13.2997936007       -3.1938142112      -10.6309839331
 C       -12.8281304121       -4.8371128091      -12.3302640188
 C       -13.0243457383        2.6231668293      -11.7839728131
 C       -10.8450500165        2.1399642170      -13.3650144815
 C        -5.6006374110        0.6868673038       -7.6832526680
 C        -5.7516145968        2.3643213573       -9.7313224531
 C        -1.1869439689       -3.6495155656       -9.8270562576
 C        -0.0379982453       -2.1608052213       -8.1076964318
 C         5.1879969569        1.6024291481      -12.0131388745
 C         4.1442663229       -0.0717595903      -13.5924292621
 C         6.4030443577       -4.4805679842      -11.6617130430
 C         8.8292436945       -5.2218474342      -11.7988251528
 C         8.6581468493       -2.2777728092      -18.3886282543
 C         9.0283657175       -4.7528192714      -19.0785985900
 C        14.0456932533       -6.5403835976      -12.9509475579
 C        15.1575478121       -5.5647456543      -14.9985953266
 H        15.6290158073       -8.6426947663      -14.7498289365
 H        15.4132097802       -7.9523175839      -16.5501395167
 H        14.6132463823       -9.5302770576      -15.8538052629
 H        13.2213992855       -5.1587407085      -16.7923184969
 H        12.6082699509       -3.7026107738      -15.9861997731
 H        10.4701227794       -5.4269941720      -15.6554476007
 H        10.9252694282       -5.8787882284      -17.3086896849
 H         5.9521006063       -3.2292812470      -16.6998167745
 H         7.3863992874       -2.4027627422      -16.0575281244
 H         5.9839448518       -4.8349132238      -14.8733494693
 H         5.8176174372       -3.1040059626      -14.2541705750
 H         8.4883070873       -1.8076199516      -10.0400179704
 H         6.9700533454       -2.5870038383      -10.1952455084
 H         7.9028630791       -0.0159528969      -11.7116261271
 H         6.7658285257       -0.1539543163      -10.3018213474
 H         2.2034716337       -1.0057377171      -12.2066376118
 H         2.0544468473        0.6639513259      -11.8630753017
 H         1.1117440635        0.0219621888       -9.5884250251
 H         1.9202416266       -1.4800299752       -9.6663613009
 H        -3.7547875225       -2.1940608586      -10.3356314977
 H        -2.6381487336       -1.5343509353      -11.3953662924
 H        -3.8685285147        0.4260005697      -11.4591462132
 H        -3.5221713633        0.8020132125       -9.7505567863
 H        -8.1280842927        2.0813552383      -10.6784690630
 H        -9.0932071225        2.0904650888       -9.2990034422
 H        -9.9355361219       -0.1320766209      -10.2306592508
 H        -9.5646098575        0.5326640802      -11.7731450853
 H       -11.2875700315       -0.4872833625      -14.1070233045
 H       -12.9990932073        0.0131053070      -14.2618232986
 H       -12.4726211194       -2.3702646326      -14.5426331313
 H       -13.6277881275       -2.0278499490      -13.2622830086
 H        -9.3147793963       -2.8865232571      -10.5415900716
 H        -9.1225806684       -4.5367974410      -11.1190541345
 H        -8.0043367305       -4.5598481352       -9.2638877494
 H        -9.3255204623       -5.4550379642       -8.8180047485
 H       -10.3293971733       -4.5956917033       -4.0657990970
 H       -11.3675146446       -4.7846597862       -5.4379249090
 H       -11.6496670903       -2.1369104693       -4.2012850292
 H       -12.0738313338       -3.4159287818       -3.1245134278
 H       -15.8163633392       -0.8042660960       -6.8141548218
 H       -14.1985044729       -1.3662414445       -6.7833996146
 H       -14.9108962202        1.5942220674       -6.7637648298
 H       -14.0217137146        0.5266601393       -8.0233964350
 H       -12.5655585639        4.3198376235       -6.6855791009
 H       -11.6087837106        4.0714701032       -8.2926720422
 H       -11.1744238196        6.1297610745       -6.8587255310
 H        -9.7260476224        5.3462677710       -7.3450467163
 H        -8.6861511413        9.2393105638       -5.2616483518
 H        -7.1375779829        8.5745182634       -4.7146166901
 H        -8.4089162822        8.6860775700       -3.4802686725
 H       -11.7159992717        6.8032311255       -3.7900121604
 H       -11.1423783650        7.7533688066       -5.2223232339
 H       -10.7655365535        8.1695982626       -3.5972204342
 H       -10.0009732530        5.1379625610       -2.4617622605
 H        -8.7978533767        6.4017145414       -2.2485013871
 H        -8.3511161211        5.0294416448       -2.9204275156
 H       -12.9790526586        3.5980426855       -4.3107953636
 H       -13.6792061097        1.9951309431       -4.1396700009
 H       -13.9514008358        2.9838486861       -5.4705508558
 H       -10.7370711555        2.1444598212       -3.8952250959
 H       -10.4467910093        0.6026163115       -4.8208964507
 H       -11.7746068108        0.8424972883       -3.6051406677
 H       -16.8224044611       -2.5720105018       -5.1310604454
 H       -16.0570865297       -3.9958134062       -4.4783552575
 H       -15.7793838238       -3.4770512757       -6.0770934934
 H       -14.4166080245       -3.4337935614       -2.4622285223
 H       -15.7421612893       -2.3206038376       -2.6224380627
 H       -14.2346081458       -1.6064663937       -2.4124311568
 H        -7.8413195550       -5.5999671031       -6.6251921490
 H        -9.5759567266       -5.8425080354       -6.3211731352
 H        -8.3601662827       -5.2926460888       -5.0505326274
 H        -6.7641245327       -3.5904178990       -6.1370125043
 H        -7.5545759092       -2.2993889332       -5.1771402187
 H        -7.3856481324       -2.1904965013       -7.0132044647
 H       -13.0354234423       -2.2824246417      -10.0437759729
 H       -13.4592767256       -4.0500306715       -9.9668287411
 H       -14.2513141428       -3.0971417672      -11.3074031697
 H       -13.4530865539       -4.3823190156      -13.1589141075
 H       -13.4459293574       -5.4806354433      -11.7459302481
 H       -12.1369817972       -5.4234860772      -12.9448919215
 H       -13.7604819584        1.9825805171      -11.3401240036
 H       -13.4452381449        3.0837393473      -12.6909523263
 H       -12.7093152987        3.4347107463      -11.1914824478
 H       -11.2222521140        1.7369561176      -14.2510918818
 H        -9.8283230738        1.6445302101      -13.2526260693
 H       -10.7413082316        3.1866373142      -13.5140979413
 H        -6.2389791385       -0.0481748456       -7.1767804499
 H        -5.7178683920        1.6597319040       -7.1860772620
 H        -4.5429785878        0.4970060093       -7.6557761560
 H        -4.8477712655        2.7069347345       -9.3092770808
 H        -6.6027737778        3.0356508255       -9.3433650450
 H        -5.8245258631        2.2744645417      -10.7951061692
 H        -1.9396365359       -3.7742456476      -10.6239927501
 H        -1.4421182837       -4.1564697681       -8.9283345590
 H        -0.3164964176       -4.1949277303      -10.1167257261
 H        -0.7197292722       -2.4494831166       -7.3179331004
 H         0.5696869017       -1.3195156669       -7.9089826544
 H         0.7279851545       -2.9775001045       -8.1740134224
 H         6.0522067428        1.6305463446      -11.3966696895
 H         4.2676286321        2.1578351601      -11.5019764315
 H         5.3453874711        2.0099859755      -13.0026162213
 H         3.7534207437       -1.0498837916      -13.7343042749
 H         4.5840595988        0.2341295682      -14.5592646120
 H         3.2999268749        0.6373439118      -13.4414770087
 H         6.4050030449       -4.2523897439      -10.5406215913
 H         6.1456793204       -5.5271515198      -11.9369170993
 H         5.6906013709       -3.7881397808      -11.9712067776
 H         9.7683073748       -4.8001936411      -11.3644196247
 H         8.9698946397       -5.9881688476      -12.5102887555
 H         8.4962246323       -5.8060539042      -10.9442393035
 H         9.2248648300       -2.1133127110      -19.2533270956
 H         8.8097169520       -1.6064190747      -17.5291363825
 H         7.5500705185       -2.3577287738      -18.5186493836
 H         8.2440525581       -4.4907105921      -19.7604267719
 H         8.9401965415       -5.8011739651      -18.6200079092
 H        10.0019496383       -4.6244368507      -19.5391725785
 H        15.0329935704       -6.8078538435      -12.5525150897
 H        13.2529615217       -7.3149372118      -12.7594567525
 H        13.9316592879       -5.5786142242      -12.4490928329
 H        16.0038980338       -6.0754742428      -14.5316984397
 H        15.1630383877       -4.4957508747      -14.6485960738
 H        15.3846673493       -5.3443205110      -16.0368010410
 Na       -9.7029531749       -0.3328506267       -6.9898148282
 Na       10.7182028000       -3.0970183113      -14.0605081139
