232

 C        14.8997320570       -8.5713508268      -15.8307618068
 C        13.6869065072       -7.8345746959      -15.0776918480
 O        12.5946672036       -8.2822881052      -15.0034211811
 C        13.9421406407       -6.3259855147      -14.4672598687
 C        12.6933543391       -5.3216608398      -14.8898530782
 O        11.9695161802       -5.0663772286      -13.9164157587
 C        12.3437607191       -4.7501732563      -16.2316564576
 C        10.9156258881       -5.0459753840      -16.6035288169
 C        10.1666179798       -3.7286345281      -17.0144401145
 O        10.5102720546       -2.6347788770      -16.5151145875
 C         8.8219424132       -3.8056531660      -17.9451482390
 C         7.6097208611       -4.3928263217      -17.0351514945
 O         7.3831885750       -5.5688861745      -17.0336355838
 C         6.7112081239       -3.3514674154      -16.2203477848
 C         6.3559834543       -4.0091932978      -14.8085231419
 C         7.7197066646       -4.2654118125      -13.8645371326
 O         8.8094725223       -4.2625088110      -14.4679006374
 C         7.7166922866       -4.1518097358      -12.3472187260
 C         8.2930707001       -2.6372923338      -12.0526144561
 O         9.2258900508       -2.1605249696      -12.6665121937
 C         7.7285267607       -1.8224005243      -10.8194687830
 C         7.1589213668       -0.4751176826      -11.1976077299
 C         6.0065661305       -0.7489383797      -12.3044269346
 O         6.1895553834       -1.6842857897      -13.0795596987
 C         4.6737600164        0.2117354073      -12.2347934027
 C         3.8920873323       -0.2605376407      -11.0110230751
 O         4.4189967064       -0.6869994477       -9.9475305507
 C         2.3778366808       -0.3440180358      -11.2747556360
 C         1.4453051493       -0.8300715145      -10.2068994981
 C         0.2055169492       -1.6348415123      -10.6059766213
 O        -0.0191716229       -1.8676588815      -11.8180316525
 C        -0.6926131904       -2.2417840270       -9.3428895440
 C        -1.9451544012       -1.1839518531       -9.3246813882
 O        -1.9573235874       -0.3644901170       -8.4251299512
 C        -3.0028543849       -1.2780693735      -10.4169226142
 C        -3.9347984464       -0.0351260546      -10.4586461714
 C        -5.3943481090       -0.2365846471      -10.1074630222
 O        -6.0474101015       -1.1687228498      -10.3847898656
 C        -6.0772427562        0.9375769340       -9.2231594377
 C        -7.6018851946        0.6060648031       -9.2033933841
 O        -8.0456037045       -0.3307535510       -8.5296212293
 C        -8.5248672525        1.5720909865       -9.9829063935
 C        -9.6075373427        0.7808484422      -10.7363767102
 C       -10.8199855304        1.7257083985      -10.8576331655
 O       -11.1334100504        2.3426506640       -9.8674058625
 C       -11.8252507541        1.7310460469      -12.0984361888
 C       -12.4163349084        0.2826862495      -12.3408796511
 O       -13.0650244153       -0.1799808906      -11.3639835003
 C       -12.1796048748       -0.6213209707      -13.6123019054
 C       -12.6444406214       -2.0326409939      -13.5021627755
 C       -11.5955718444       -2.7523937939      -12.6141292490
 O       -10.4434827290       -2.6229733542      -12.9349047834
 C       -12.1311550132       -3.6979655754      -11.5589715892
 C       -11.0859604905       -4.3665859353      -10.5343320688
 O       -11.5855800491       -5.1835993994       -9.7917630066
 C        -9.5602938679       -3.8856471287      -10.4427313618
 C        -8.9808782686       -4.4067373737       -9.0569535421
 C        -9.3367789729       -3.4555730618       -7.9194158150
 O        -9.9562493245       -2.4035229534       -8.1174190696
 C        -8.8570208010       -3.7006335651       -6.4412444353
 C       -10.0943666494       -3.0164402488       -5.4795559180
 O       -10.0778838955       -1.8445650032       -5.2068223057
 C       -10.9182661322       -4.0303464953       -4.7684766337
 C       -12.1945338580       -3.2515144645       -4.0459414584
 C       -13.4470711073       -3.1918745242       -4.9208062958
 O       -13.5114366643       -3.6432907039       -6.0426673390
 C       -14.7294476870       -2.4904308726       -4.2669801787
 C       -14.7387580238       -0.9344727209       -4.8248894661
 O       -14.6367417810        0.0011783923       -4.0983628584
 C       -14.7935904692       -0.7180147723       -6.3350425007
 C       -14.2700559370        0.6951213112       -6.7871407737
 C       -12.7628723562        0.7019479876       -6.4757700953
 O       -12.0629557601       -0.1153527661       -7.0583878754
 C       -12.1602322877        1.8640686272       -5.5433197248
 C       -11.2145980361        2.6819379039       -6.5247865364
 O       -10.2438039020        2.0901870826       -6.9920044044
 C       -11.5759716756        4.0663000892       -7.1503659354
 C       -10.6962601358        5.2213145378       -6.5857824905
 C       -10.0950045148        5.0731946440       -5.2328432105
 O        -9.9538123564        3.9878687390       -4.7193707402
 C        -9.6742724593        6.2770524253       -4.2905950530
 C        -8.5335529928        7.1599990510       -5.0740112247
 O        -8.1687718362        6.7410305037       -6.1670718387
 C        -8.1807661074        8.5744900129       -4.6053077912
 C       -10.8531780822        7.1891798696       -4.1150178714
 C        -9.1991616355        5.7645323028       -2.9747921367
 C       -13.1856156116        2.8359222272       -4.8589465784
 C       -11.1154655182        1.3201039578       -4.5096112760
 C       -15.9135913749       -3.0909900151       -4.8852478475
 C       -14.6593948380       -2.4988803048       -2.7660660888
 C        -8.7312307831       -5.2341580977       -6.1316773516
 C        -7.6458045538       -2.8514264825       -6.1986044413
 C       -13.3205258548       -3.0374268308      -10.7524108667
 C       -12.6895839380       -4.9497383436      -12.3336635441
 C       -12.9913427399        2.7668042243      -11.8831856663
 C       -10.9289553134        2.1550462766      -13.3905889437
 C        -5.5280306109        0.6783177177       -7.8454525058
 C        -5.7303581946        2.2850376225       -9.7468660985
 C        -1.1648660062       -3.7128077128       -9.6662102101
 C         0.0955360263       -2.2988244651       -8.0572183062
 C         5.1169111191        1.7327691255      -12.0701563866
 C         3.9935530844       -0.0508287374      -13.6632153035
 C         6.4433425755       -4.5173832871      -11.6453810585
 C         8.8689763988       -5.0210813524      -11.7580165707
 C         8.5241520268       -2.2763431443      -18.3649723926
 C         9.1348736380       -4.6423843678      -19.2582567058
 C        14.0310956003       -6.5126278990      -12.9268598602
 C        15.1390369317       -5.5545171784      -14.9758419896
 H        15.8568051867       -8.6812900261      -15.2259257865
 H        14.9615299106       -7.8182604767      -16.6689248153
 H        14.6579924378       -9.6099157847      -16.1831224271
 H        13.0517759973       -5.1098611227      -17.0186619440
 H        12.4627151335       -3.6470545955      -16.1610995432
 H        10.3008513366       -5.5179784454      -15.7457431652
 H        10.9979694992       -5.7841457256      -17.3774539487
 H         5.8150663121       -3.1885274680      -16.7592460917
 H         7.3125150309       -2.3694870580      -15.9817980332
 H         5.8923636761       -5.0231434589      -15.0145990211
 H         5.7942518148       -3.4323356333      -14.0674430280
 H         8.5449200315       -1.7533994949      -10.0974537267
 H         7.0646501760       -2.4645426126      -10.2815415643
 H         7.9870027496       -0.0397480293      -11.7565720680
 H         6.9981174689        0.0127565404      -10.1862420143
 H         2.3058497488       -0.9572982674      -12.1819471044
 H         2.0302556998        0.6523683908      -11.5645812194
 H         0.9648513390        0.0423521869       -9.7170154758
 H         1.9862483439       -1.3809700617       -9.3917855990
 H        -3.6201177534       -2.1793513760      -10.2660250853
 H        -2.4961058253       -1.5853798146      -11.3786075200
 H        -3.8936669924        0.3634571172      -11.4781264495
 H        -3.4163088422        0.7349448970       -9.7848843021
 H        -8.0026426944        2.2423471428      -10.6706943745
 H        -9.1095662929        2.1582561422       -9.2040342906
 H        -9.9012764111       -0.0440065683      -10.1692615840
 H        -9.3571710664        0.4069078178      -11.7203285506
 H       -11.0644262547       -0.7570073794      -13.7253597665
 H       -12.5600560151       -0.1066580838      -14.4919448621
 H       -12.7382129710       -2.5466700092      -14.4643895394
 H       -13.6403076830       -1.9212173048      -13.0927480721
 H        -9.4230789151       -2.8033909064      -10.4280295285
 H        -9.0565121483       -4.2843546059      -11.3072135326
 H        -7.9611004186       -4.5666356687       -9.2671921738
 H        -9.2609540855       -5.4275941923       -8.7766267672
 H       -10.2935288192       -4.6511899059       -4.1584641422
 H       -11.3495531767       -4.7436394566       -5.5114714462
 H       -11.8865774952       -2.2535686526       -3.6907191663
 H       -12.3438638550       -3.9105869336       -3.1660052919
 H       -15.8988371425       -0.6954375217       -6.5473213726
 H       -14.3849040019       -1.4786103986       -6.9769692747
 H       -14.8240030685        1.3960737654       -6.1560458527
 H       -14.4065382274        0.9046693232       -7.8430125393
 H       -12.6145126961        4.3605179402       -7.1425333213
 H       -11.2750509608        3.9914472474       -8.1508876579
 H       -11.1562279313        6.1571444718       -6.7702994949
 H        -9.8401533456        5.3175780994       -7.2407426138
 H        -8.4343832438        9.2327194635       -5.4234375399
 H        -7.0812853341        8.6563205744       -4.4909630574
 H        -8.6786546153        8.7309939691       -3.6306304690
 H       -11.7827498203        6.6532117418       -3.6648088680
 H       -11.1858149923        7.7160835968       -5.0303361630
 H       -10.7117343023        7.9942198851       -3.4295391835
 H        -9.9381275805        5.2174133415       -2.5220439541
 H        -8.8482635398        6.5635950796       -2.3458031868
 H        -8.3564647324        5.1434569188       -2.9426086085
 H       -12.6723143312        3.5299296458       -4.2205704774
 H       -13.9322531843        2.3439817802       -4.2816431032
 H       -13.6471963416        3.4816233499       -5.5392579317
 H       -10.7719700853        2.0906926437       -3.8601084178
 H       -10.3389042613        0.8784412103       -5.1751388111
 H       -11.4283854043        0.5415565047       -3.7966964033
 H       -16.7882388202       -2.4977379639       -4.9113976560
 H       -16.1030133302       -4.0468745745       -4.3808447546
 H       -15.7448343960       -3.2565908080       -5.9097505589
 H       -14.1848415130       -3.4338859332       -2.4882709950
 H       -15.6579685436       -2.4276341031       -2.2139918984
 H       -14.1170651477       -1.5711087425       -2.4665803095
 H        -7.7863632693       -5.6180499450       -6.5774355792
 H        -9.5516151285       -5.7243106602       -6.5453685420
 H        -8.6319892732       -5.4829265086       -5.0540833071
 H        -6.6510328988       -3.3436574660       -6.6245213804
 H        -7.4993248646       -2.6461094129       -5.1243468429
 H        -7.7481070790       -1.8732922862       -6.7056388775
 H       -12.9235413921       -2.5610681126       -9.8404329838
 H       -13.9972623690       -3.8779188139      -10.4332116296
 H       -13.8738229003       -2.3464349924      -11.3615441768
 H       -13.4496762200       -4.5936788017      -13.0221816554
 H       -13.1490314188       -5.6782395102      -11.6556787383
 H       -12.0240644205       -5.4896643016      -12.9269227718
 H       -13.8330698474        2.1344979289      -11.5252704099
 H       -13.3674287069        3.3699122927      -12.7026081422
 H       -12.6067643562        3.4395499122      -11.1466042814
 H       -11.5169216424        1.9599885344      -14.3113031470
 H       -10.0015673171        1.6545913947      -13.4969873434
 H       -10.8031014950        3.2089927944      -13.3500804220
 H        -5.6981798849       -0.3860377493       -7.5139616332
 H        -5.9243805604        1.3556409515       -7.0836235641
 H        -4.4666231160        0.9653442956       -7.9838071046
 H        -4.6851231741        2.4276271553       -9.4552208732
 H        -6.2830319751        3.0279865167       -9.1866880160
 H        -5.9262878752        2.2692687864      -10.8000649202
 H        -2.1583435433       -3.8433468702      -10.0860807690
 H        -0.9493674728       -4.3584876441       -8.8438323716
 H        -0.5017414228       -4.1437283526      -10.3888421260
 H        -0.6763322670       -2.3733451197       -7.2294451639
 H         0.9556746485       -1.5893020604       -7.8874253454
 H         0.5990099400       -3.2960381068       -7.9936077992
 H         5.9153500420        1.6516099079      -11.3148819206
 H         4.3266479664        2.3008603297      -11.6478957183
 H         5.4679445795        2.1414534491      -13.0523849827
 H         3.5641715462       -1.0489294186      -13.7418918777
 H         4.7133741937       -0.0403526878      -14.5008751923
 H         3.2576222311        0.6878397587      -13.9484642710
 H         6.5800249397       -4.1568850894      -10.6114196699
 H         6.2643974629       -5.6003292880      -11.7465541192
 H         5.5876564258       -3.9396194989      -11.9391442316
 H         9.6401025430       -4.3823051735      -11.3424757854
 H         9.2883159992       -5.6691710465      -12.5828631491
 H         8.6940522784       -5.7575797261      -10.9944571857
 H         9.3313901075       -2.0178084986      -18.9531682009
 H         8.3913446491       -1.7115746483      -17.4622646366
 H         7.5687949919       -2.2607358324      -18.8323902987
 H         8.2289540413       -4.9718752849      -19.8135124730
 H         9.7761235021       -5.4679762562      -18.8913758602
 H         9.7871272901       -4.0048089234      -19.8478343002
 H        14.9473296168       -7.1314418840      -12.5773171789
 H        13.0902897304       -6.9560761174      -12.5973374061
 H        14.4008315254       -5.5724596638      -12.4875584827
 H        16.0428683587       -6.2204772096      -14.9070951133
 H        15.3643252787       -4.5635994036      -14.5516195890
 H        15.0759954530       -5.2110137701      -16.0141935786
 Na       -9.6690829529       -0.4017209165       -7.0528941065
 Na       10.8560998074       -3.0973400831      -14.1193826358
