232

 C        14.5354961087       -8.4089873327      -16.1077169249
 C        13.5421310276       -7.7256827683      -15.1312849735
 O        12.4706859957       -8.2196490695      -14.7533123659
 C        13.8575686745       -6.2312010568      -14.6647662314
 C        12.6723790117       -5.2864011705      -14.8530460710
 O        11.8665979582       -5.0507779075      -13.9477466956
 C        12.3454937090       -5.0014013752      -16.4006176324
 C        10.7589036043       -5.0712046431      -16.7065717777
 C        10.0655563337       -3.6405114949      -16.9911106162
 O        10.3601930903       -2.6316614504      -16.3907456226
 C         8.7556122333       -3.6796151259      -17.8418128336
 C         7.6184473340       -4.4957527497      -17.0008356346
 O         7.4969733156       -5.6848670497      -17.2920921550
 C         6.6826744249       -3.6783207909      -16.0223196224
 C         6.5009165973       -4.4227733044      -14.7565051242
 C         7.8170339905       -4.2208678817      -13.9628506347
 O         8.8317723288       -4.1388574891      -14.6203555691
 C         7.9038497813       -3.9552292688      -12.3920662353
 C         8.3682791790       -2.4925755001      -12.0784263402
 O         9.3413838588       -2.1006168862      -12.7268441481
 C         7.8656395908       -1.6616065424      -10.8162931871
 C         7.1368497100       -0.3152581302      -11.2386914397
 C         6.1012377160       -0.6180624759      -12.2788682549
 O         6.3145902145       -1.4186987767      -13.1679570596
 C         4.6708443806        0.1407861045      -12.2952439214
 C         3.8539269730       -0.2201788941      -11.0751163667
 O         4.3670209525       -0.4754811753      -10.0525205305
 C         2.4115022804       -0.2715850685      -11.2047234772
 C         1.7360565223       -0.8942956784       -9.9537176333
 C         0.4468152650       -1.6270435029      -10.3070961709
 O         0.1754931373       -1.8100615766      -11.4298109774
 C        -0.6556222514       -2.2764634258       -9.2453648081
 C        -1.7029539248       -1.3074910754       -9.2731734682
 O        -1.7661516975       -0.4657522946       -8.3983736723
 C        -2.8644687109       -1.4061635025      -10.4063344997
 C        -3.7187437031       -0.0919591996      -10.5537973570
 C        -5.2021652439       -0.2549016078      -10.1481170780
 O        -5.7261257609       -1.3139172993      -10.4867589886
 C        -5.8711313378        0.9529689665       -9.2789354830
 C        -7.4801556280        0.7335776737       -9.2319392751
 O        -7.8277748713       -0.1624782790       -8.5060636896
 C        -8.5023152032        1.5992834249      -10.0384909727
 C        -9.5638985230        0.8931968541      -10.8609235287
 C       -10.8706167189        1.7527853585      -10.8830586903
 O       -11.2467770422        2.3838209081       -9.9082172217
 C       -11.7215091439        1.7781389398      -12.2085662671
 C       -12.3882538421        0.2777840050      -12.3731497083
 O       -13.0027927966       -0.1369219357      -11.4679110485
 C       -12.0200543563       -0.4777704288      -13.6850256873
 C       -12.5042059996       -2.0004030505      -13.5628925348
 C       -11.5671010606       -2.8210258843      -12.6079926623
 O       -10.3594062953       -2.7222271587      -12.7434995892
 C       -12.1886262445       -3.9156675201      -11.5440161018
 C       -11.1178314396       -4.4286310409      -10.4823313204
 O       -11.5326510765       -5.2417456937       -9.6760676475
 C        -9.6590268926       -3.8642969425      -10.3401415573
 C        -9.1330939606       -4.1945915724       -8.9878544080
 C        -9.6275945880       -3.3041962951       -7.9703054897
 O       -10.2983882776       -2.3112271893       -8.2320893647
 C        -9.0368457477       -3.6316926623       -6.4273793541
 C       -10.0776857825       -3.0990496538       -5.4593539690
 O       -10.2359467417       -1.8802314746       -5.1942361247
 C       -11.1085209520       -4.1149384172       -4.8534090126
 C       -12.2627555288       -3.6783716253       -3.9611099033
 C       -13.6310778546       -3.3417743564       -4.8103129220
 O       -13.6147111506       -3.6269286775       -5.9886139601
 C       -14.8843646845       -2.6056402406       -4.1687673593
 C       -14.7964127464       -1.1113423288       -4.7212622471
 O       -14.5604038751       -0.2012177966       -3.9113014971
 C       -14.8201545122       -0.7761214937       -6.2204432694
 C       -14.3395720042        0.6585715144       -6.5088797644
 C       -12.8331464194        0.8055080368       -6.4720089727
 O       -12.2298331549       -0.1316357935       -6.9656231829
 C       -12.0669668346        1.8266617445       -5.6496615007
 C       -11.0031651807        2.6499673303       -6.6914260411
 O        -9.9798238563        2.1752547739       -7.1621725171
 C       -11.4433701572        4.0882855434       -7.1290283383
 C       -10.6752323539        5.2884129402       -6.5112404224
 C       -10.2823000786        5.1418808521       -5.0620170308
 O       -10.2169876127        3.9936821759       -4.6032633531
 C        -9.7380743501        6.3642105115       -4.3401243353
 C        -8.6122910680        7.1032188449       -5.1619384844
 O        -7.9994432877        6.6029558238       -6.0575229323
 C        -8.1765716802        8.5666448129       -4.5834249615
 C       -11.0330772030        7.1783995224       -4.0202314915
 C        -8.8855359414        6.0814580342       -3.0819437749
 C       -13.0483452434        2.7692677555       -4.9270004608
 C       -11.3926300165        0.9872571101       -4.5513141169
 C       -16.2755575598       -3.2759966144       -4.4952773329
 C       -14.7451622460       -2.4015440830       -2.6273020079
 C        -8.6879730265       -5.1536262545       -6.1900384411
 C        -7.6514743816       -2.8832558111       -6.1977589298
 C       -13.3055717556       -3.3403142932      -10.6236245237
 C       -12.6831208562       -5.1398952505      -12.3637968261
 C       -12.9564767220        2.7257988968      -11.9554558325
 C       -10.8457910663        2.1727236164      -13.5253780370
 C        -5.3119567643        0.7183733216       -7.8515654203
 C        -5.4723682483        2.3289171303       -9.8052830019
 C        -1.1347609868       -3.6627011790       -9.8354184903
 C         0.0100356922       -2.3497429169       -7.8549971697
 C         4.9966233713        1.7528600208      -12.1016923721
 C         3.9600935598       -0.0207696185      -13.6556876872
 C         6.5312311728       -4.3761519400      -11.7968351687
 C         9.0086321691       -4.8508601881      -11.8355694109
 C         8.2321950046       -2.2193350978      -18.2816438569
 C         9.0035804971       -4.5200706552      -19.2006362928
 C        14.0138929882       -6.4448860969      -13.1184312622
 C        15.2059380293       -5.7821512909      -15.2446625158
 H        15.4218434751       -8.5513264029      -15.5993196425
 H        14.6535831166       -7.8404746034      -17.0005891270
 H        14.1821636484       -9.3849653139      -16.2063297790
 H        12.8526213535       -5.7440071862      -17.0131030807
 H        12.7482221473       -4.0270781943      -16.7347202130
 H        10.2076888195       -5.3974344881      -15.8574556056
 H        10.7132841249       -5.8280902537      -17.5163688459
 H         5.6752698877       -3.6115455747      -16.5781312652
 H         7.0994960912       -2.7900254537      -15.7212343934
 H         6.5564344823       -5.4347933743      -14.9897632055
 H         5.7347700975       -4.1682141642      -13.9883114305
 H         8.6980803477       -1.5655202648      -10.1497869503
 H         7.2188972412       -2.3413747522      -10.2458501881
 H         7.8753790734        0.4368761687      -11.5635411773
 H         6.5875279324       -0.0728489216      -10.3843164204
 H         2.0926095192       -0.7842504682      -12.1404938644
 H         2.1026525931        0.7929269238      -11.3012816929
 H         1.5271783173       -0.2234679146       -9.1049168673
 H         2.3650660613       -1.7055658626       -9.5987462908
 H        -3.6264051573       -2.1819175337      -10.2367850738
 H        -2.3775716065       -1.7479464528      -11.2803130311
 H        -3.8156836366        0.3442858019      -11.5653089318
 H        -3.1893258662        0.5653175536       -9.9390520238
 H        -8.0588442960        2.3747529921      -10.7417619299
 H        -9.1270494511        2.1032642370       -9.2264124886
 H       -10.0480482621       -0.0539828538      -10.3651791506
 H        -9.2602281018        0.5306033348      -11.8856413072
 H       -10.9631624922       -0.5542340658      -13.8543165560
 H       -12.4602240920        0.0153624375      -14.5728107714
 H       -12.3122559118       -2.4427551077      -14.5630313247
 H       -13.5893507843       -2.0561180353      -13.4315218062
 H        -9.6468462223       -2.7573289307      -10.4246174577
 H        -9.1034160113       -4.3487350800      -11.1871089007
 H        -8.0016799377       -4.1755574911       -9.0701749036
 H        -9.3036678145       -5.2570891748       -8.7411104234
 H       -10.4966893104       -4.8138433078       -4.1983490696
 H       -11.4764444133       -4.8002761627       -5.6006079390
 H       -11.9284397517       -2.7195872536       -3.4644441822
 H       -12.3407527803       -4.4758980826       -3.1812863487
 H       -15.7625937356       -1.0840344622       -6.7218785574
 H       -14.0247668727       -1.4005178717       -6.7238457484
 H       -14.9130222502        1.3758479238       -5.9070158566
 H       -14.5667029344        0.9284470580       -7.5572343116
 H       -12.5143781749        4.3616292398       -6.9737549465
 H       -11.5011168477        4.0420168057       -8.2637401723
 H       -11.2469450473        6.2100967312       -6.7768423906
 H        -9.7115413750        5.5154861435       -6.9965935421
 H        -7.9533352513        9.1478093189       -5.5241246590
 H        -7.2282599574        8.5724673019       -4.0894757226
 H        -8.9433975416        8.8184893840       -3.8815936378
 H       -11.7743495858        6.6016471293       -3.6263864495
 H       -11.5698831928        7.6413622456       -4.8430099694
 H       -10.8265708340        7.9900945067       -3.2861983409
 H        -9.3665138574        5.4143596620       -2.2937421850
 H        -8.5268292887        6.9898500920       -2.5690064204
 H        -7.9629231862        5.4662695405       -3.2353339956
 H       -12.5744232828        3.7597705413       -4.6488826007
 H       -13.4912676235        2.3898006555       -3.9782134393
 H       -13.8975327101        3.0821330357       -5.6092816696
 H       -11.4182313439        1.5772961093       -3.6367390096
 H       -10.4559802925        0.5858299455       -4.8512267526
 H       -11.9306365803        0.0929028691       -4.2666936475
 H       -17.1869177990       -2.7777627213       -4.0319376987
 H       -16.2239796437       -4.3004575511       -4.1353367461
 H       -16.5925427425       -3.2121513515       -5.5928204551
 H       -14.9519682692       -3.4212004559       -2.1836844244
 H       -15.4147069019       -1.6307227129       -2.3177803538
 H       -13.7848520129       -1.9825961987       -2.3229336230
 H        -7.9037481782       -5.4198736624       -6.9198894019
 H        -9.6377163857       -5.7978377801       -6.1384292132
 H        -8.3077033458       -5.3048900461       -5.1889730283
 H        -7.3118418874       -2.5403988108       -7.0606843692
 H        -6.9267244887       -3.4541968171       -5.6376971384
 H        -7.8120551506       -2.0123415894       -5.5814940027
 H       -12.9795861537       -3.0634690418       -9.6574857908
 H       -13.9819152475       -4.1026895117      -10.4739253015
 H       -13.7268051184       -2.4242752074      -11.1096818279
 H       -13.6857807013       -5.0312066260      -12.8180277640
 H       -12.7069720908       -6.0315646412      -11.7703631431
 H       -11.9091529703       -5.4811791553      -13.1012224504
 H       -13.5077895230        2.2664608668      -11.1405425114
 H       -13.6867773587        2.6994775312      -12.8015741372
 H       -12.5906436569        3.7733877443      -11.8234745573
 H       -11.3838711437        2.4468199770      -14.3989187229
 H       -10.1936322015        1.2485523877      -13.6630210714
 H       -10.1068027008        2.9587038266      -13.2721770260
 H        -5.0469435227       -0.3009143754       -7.6712098753
 H        -6.0827632528        0.9728962234       -7.1028161287
 H        -4.4789231495        1.3947557580       -7.7258537468
 H        -4.4074942247        2.3883211827       -9.8159964399
 H        -5.7433884120        3.0936304946       -9.0478730896
 H        -5.8604811631        2.3815876582      -10.8293025393
 H        -2.1746323128       -3.8045226490       -9.4679925018
 H        -0.4942531780       -4.5021697119       -9.5322131945
 H        -1.2250270238       -3.7724879377      -10.9271762750
 H        -0.4423134492       -3.0850565466       -7.2184139232
 H        -0.0640451059       -1.3588918428       -7.4798694388
 H         1.0841886051       -2.5862146152       -7.8490653349
 H         5.1837321630        1.9470283295      -11.0782314518
 H         4.0449946493        2.3763388132      -12.3260882918
 H         5.8006749025        1.9701416339      -12.7204773475
 H         3.9034256481       -1.0695695995      -13.9371602506
 H         4.6271821487        0.3062627927      -14.4666164350
 H         3.0160528525        0.5027772216      -13.8990502358
 H         6.3863364009       -4.4977691128      -10.7188078685
 H         6.2059757512       -5.2209838128      -12.3568959371
 H         5.8872663399       -3.5751893250      -12.0890941175
 H         9.3836409796       -4.4783161048      -10.8468246227
 H         9.8716131874       -5.0076841014      -12.4355969472
 H         8.6009234066       -5.8695266568      -11.6848146801
 H         9.2053012476       -1.7404374395      -18.4809434031
 H         7.8379283796       -1.8387346218      -17.3162586819
 H         7.4110062867       -2.1031001650      -19.0511574593
 H         8.3061370299       -5.3202696536      -19.1887778486
 H        10.0025611407       -4.9693040748      -19.1251930370
 H         8.9929125545       -3.9179342297      -20.1094320091
 H        14.5475139021       -7.3150003827      -12.9896865808
 H        13.0083321176       -6.6577186812      -12.7775773289
 H        14.6533610820       -5.8423708723      -12.5642095305
 H        15.9680769403       -6.4898347251      -15.1398419990
 H        15.5183270671       -4.8440929963      -14.8216258843
 H        15.2221214978       -5.4916681445      -16.2894613632
 Na       -9.9732313481       -0.2427943011       -7.1016904468
 Na       10.7960938739       -3.0605609645      -14.2928772258
