232

 C        13.4317750534       -8.3324259765      -16.6679268070
 C        12.9593911783       -7.7116637085      -15.3171149827
 O        12.1251401190       -8.0289891890      -14.5545103418
 C        13.7255387824       -6.2621661058      -15.0172271211
 C        12.6855612266       -5.1887537769      -15.2870138140
 O        12.2770821228       -4.4201699993      -14.3918497288
 C        12.1585141266       -4.9989232246      -16.7598658078
 C        10.6455641393       -5.1305640105      -16.9205991620
 C         9.9574997066       -3.7412134206      -17.0592976594
 O        10.4964555614       -2.7354395788      -16.6223642424
 C         8.4747268963       -3.7206887272      -17.7701896315
 C         7.6616164693       -4.7524501630      -16.9553692945
 O         7.9484305934       -5.8996903940      -17.0751129745
 C         6.4593031811       -4.2942517384      -16.2257735429
 C         6.4794531888       -4.4014249422      -14.6135575899
 C         7.8115683941       -4.0119968784      -13.9455497263
 O         8.7916706630       -4.0014127575      -14.6730837445
 C         7.8633908123       -3.6870887866      -12.4908337618
 C         8.4237678524       -2.1936751772      -12.2037606069
 O         9.2809323177       -1.8411211665      -12.9992162951
 C         7.8664880654       -1.4369999026      -11.0151528542
 C         7.2667527131       -0.0803270894      -11.4548569734
 C         6.1393206636       -0.4122592458      -12.4141301301
 O         6.1372744724       -1.4174795561      -13.1346239601
 C         4.7819100957        0.4359638745      -12.2758141369
 C         4.1256402376       -0.2031955147      -10.9528238480
 O         4.8030293569       -0.4917009600       -9.9363172904
 C         2.5727309986       -0.3972473087      -11.0099231789
 C         1.8656355330       -1.0579221375       -9.8040037875
 C         0.5200525244       -1.6961554009      -10.1902367570
 O         0.3008744517       -1.8310370336      -11.4531088326
 C        -0.3563032304       -2.3135011942       -9.2018836776
 C        -1.6356028735       -1.2043993736       -9.1820958228
 O        -1.8707445714       -0.4235662570       -8.2701254883
 C        -2.5116736966       -1.2828054345      -10.4095932144
 C        -3.4690632544       -0.0893190080      -10.3836442458
 C        -5.0227241365       -0.2420607540      -10.0503554042
 O        -5.6222211049       -1.2704068903      -10.3328661282
 C        -5.7098939875        0.9989207032       -9.3967129598
 C        -7.2552097721        0.7478562203       -9.2591974962
 O        -7.6870645175       -0.0481025543       -8.4237746662
 C        -8.2399370705        1.5376297731      -10.2064690298
 C        -9.5717473141        0.7951255790      -10.5945265818
 C       -10.6399167204        1.8469417344      -10.9221916320
 O       -10.9233947132        2.7589413417      -10.1623061533
 C       -11.3574326874        1.6723349548      -12.2665913794
 C       -12.1109218557        0.2358405533      -12.2676704920
 O       -12.8158771909       -0.0748026332      -11.2853454750
 C       -12.0151502685       -0.5375633222      -13.5320346468
 C       -12.4627694951       -2.0164194250      -13.4469176275
 C       -11.5110489562       -2.9346361179      -12.6600806454
 O       -10.3027478741       -2.9713283094      -12.8051227921
 C       -12.1736593376       -4.0711913052      -11.7533136302
 C       -11.1430115527       -4.6331410723      -10.6846803489
 O       -11.4500685436       -5.5630258834       -9.9957322623
 C        -9.6397934877       -4.0512132003      -10.4359158863
 C        -9.1381616088       -4.3557289560       -8.9396686448
 C        -9.5350474636       -3.3582962240       -7.8743235207
 O       -10.1872926879       -2.4070349087       -8.2839616657
 C        -9.1178874153       -3.5585130013       -6.3528352816
 C       -10.5722552739       -3.0961312285       -5.5403030495
 O       -10.9420809957       -1.9947058887       -5.7042722537
 C       -11.2890184442       -4.1919020001       -4.7609592195
 C       -12.4490213686       -3.8303782966       -3.9660916125
 C       -13.7857968671       -3.5119389208       -4.6314171044
 O       -13.9852835747       -3.8967224262       -5.7595738227
 C       -14.8020073824       -2.6550754987       -3.8881185566
 C       -14.5413252250       -1.1048276395       -4.3233679551
 O       -14.2549749734       -0.3821318016       -3.4171913246
 C       -14.8634815016       -0.7740782852       -5.7683560717
 C       -14.5133279514        0.5703241752       -6.4376016866
 C       -13.0396410197        0.8151658989       -6.4745120351
 O       -12.3167583850        0.2232202949       -7.2320858178
 C       -12.4072473065        1.8366285363       -5.4934029326
 C       -11.2724721501        2.5307870769       -6.3053762058
 O       -10.2843904003        1.8787299676       -6.7316346779
 C       -11.4790949111        4.0259351547       -6.7851992190
 C       -10.2682045338        4.8787387908       -6.4945851990
 C       -10.1366767440        5.0163252540       -4.9919264195
 O       -10.6512883886        4.1278390567       -4.3679681846
 C        -9.5935410727        6.3088099943       -4.3186414992
 C        -8.5936017812        7.0614249639       -5.1954141421
 O        -8.0258648591        6.4823684672       -6.1130020856
 C        -8.3297459651        8.5668384423       -4.9434251344
 C       -10.8782716537        7.2397388222       -4.1579257953
 C        -8.8416967143        6.0815922428       -3.0249712102
 C       -13.3479092470        2.8868117756       -4.8836784350
 C       -11.7150573418        0.9968499142       -4.3196779014
 C       -16.2989676367       -3.0363513361       -4.2178994895
 C       -14.8115954697       -2.7438070719       -2.2448192973
 C        -8.7692544313       -5.0744758223       -6.0516140966
 C        -8.0524906459       -2.5188358999       -5.8887852510
 C       -13.5026641986       -3.6864565423      -10.9386842180
 C       -12.5287052080       -5.3559111584      -12.5416359024
 C       -12.3715390904        2.7649608916      -12.3522126472
 C       -10.4035421934        1.7835796427      -13.5038856449
 C        -5.1673012973        1.0575745664       -7.7985624513
 C        -5.3291398220        2.3308936823      -10.1452802693
 C        -0.8854347701       -3.6617962444       -9.5023718715
 C         0.3038662095       -2.4768118435       -7.7745622504
 C         5.0311483468        1.9265086772      -12.1112335534
 C         3.9181595655       -0.0428635647      -13.4885373403
 C         6.6472514232       -4.1396199551      -11.7180978039
 C         9.1018797681       -4.5290447622      -11.7124577486
 C         8.0435210986       -2.2807991705      -17.6476317674
 C         8.5627893022       -4.2222726198      -19.1724078248
 C        14.1593980541       -6.3919922192      -13.6024248160
 C        14.8886872036       -5.9990480270      -15.9393009986
 H        14.4841533659       -8.5292491145      -16.7203352925
 H        13.2491559129       -7.6304936776      -17.4071417662
 H        12.8217098466       -9.1863668871      -16.7899486204
 H        12.7303557941       -5.6767065828      -17.3582765299
 H        12.5241123130       -4.0217254137      -17.1386025568
 H        10.2869407451       -5.3705815770      -15.8737183958
 H        10.3095683451       -5.7795277796      -17.6510802447
 H         5.6536295534       -4.8862110446      -16.2939787848
 H         6.2034584317       -3.2381321322      -16.4766698280
 H         6.2777230995       -5.4249751092      -14.3638377508
 H         5.7053257777       -3.8087356039      -14.1825191529
 H         8.6825281201       -1.2767482164      -10.2751031247
 H         7.1325712037       -2.1497018917      -10.5906059733
 H         8.0331356161        0.4145683038      -11.9993249276
 H         7.1126156889        0.5069162632      -10.5564598658
 H         2.2594790451       -0.9490927384      -11.8760774662
 H         2.1970412046        0.6976279310      -11.0819151364
 H         1.7362613217       -0.3194673226       -9.0396020448
 H         2.4786824065       -1.9182185196       -9.3958291524
 H        -3.1083105046       -2.1659418932      -10.2627024931
 H        -2.0422139959       -1.2941539126      -11.3767109485
 H        -3.3973562315        0.3818919256      -11.3239991499
 H        -3.0591626881        0.6123688386       -9.6236060430
 H        -7.6836947636        1.8986967341      -11.0997758552
 H        -8.4872672604        2.4861088007       -9.6031515027
 H        -9.7905335611        0.2172987886       -9.6430954025
 H        -9.4056431519        0.0861316691      -11.5224543400
 H       -10.9631765841       -0.5776252623      -13.9146907851
 H       -12.6011922388        0.0533461483      -14.2009625992
 H       -12.5148790015       -2.4627522582      -14.4781071459
 H       -13.4933234295       -2.0671697267      -13.1450079296
 H        -9.5536558460       -2.9481428114      -10.5667977967
 H        -9.0454039959       -4.6374579109      -11.1338914734
 H        -8.0740902846       -4.5790748041       -9.0434497524
 H        -9.6225891729       -5.3516033783       -8.5772564131
 H       -10.6778902625       -4.9392060006       -4.2843753131
 H       -11.7628034802       -4.7249895422       -5.6394989151
 H       -12.3049290451       -2.9803260627       -3.3281942235
 H       -12.6587491652       -4.5881692658       -3.1882861944
 H       -16.0062202891       -0.8892071012       -5.8310607509
 H       -14.5416847280       -1.6097892542       -6.3659691074
 H       -15.0546356419        1.4085771832       -5.9434582060
 H       -14.9972622964        0.6424896284       -7.4150437418
 H       -12.4754720367        4.5149257406       -6.4182764540
 H       -11.5578348402        4.0149047336       -7.9151116806
 H       -10.2719606492        5.8160717495       -7.0953623583
 H        -9.4246363695        4.2693734988       -6.8465550992
 H        -7.3042316731        8.7147502306       -4.7471515845
 H        -8.8909375436        8.8357507373       -4.0351505658
 H        -8.9438006260        9.0287027645       -5.7525413003
 H       -11.7783396583        6.6452534943       -3.8200279654
 H       -11.2302678404        7.6780006496       -5.1021818422
 H       -10.7580003379        7.9496723121       -3.4267841324
 H        -9.3444986700        5.8954988596       -2.0921316588
 H        -8.4035586941        7.0515858307       -2.6485063230
 H        -8.0635503442        5.3147525840       -3.1937452936
 H       -12.7147584038        3.6829558447       -4.4062974326
 H       -13.9646466778        2.4164505265       -4.0402891257
 H       -14.0427508557        3.3717227040       -5.5828206798
 H       -11.0678312450        1.7030850882       -3.8850903419
 H       -11.1792120792        0.1033712826       -4.6757418303
 H       -12.3930767036        0.5573928791       -3.5803282245
 H       -16.9543900106       -2.2301662812       -3.8050702569
 H       -16.6832673161       -3.9461753566       -3.6184373318
 H       -16.6637777552       -3.3546887241       -5.1972504562
 H       -14.3398094293       -3.6794013126       -2.0123177643
 H       -15.9071704745       -2.7495823853       -2.0190536251
 H       -14.2854436945       -1.9197728401       -1.7217066727
 H        -8.0242323039       -5.4655344470       -6.8204753371
 H        -9.6640368412       -5.6412412903       -6.1993028019
 H        -8.4589496223       -5.1026237592       -4.9531290746
 H        -8.5435399836       -1.6880469008       -5.2883822742
 H        -7.5672246371       -2.1264945577       -6.7329687175
 H        -7.3049851460       -2.9665393660       -5.3668059701
 H       -13.6204807825       -2.6430020062      -10.8157953093
 H       -13.4210677872       -4.1711108978       -9.9598083943
 H       -14.3240079586       -4.0135528047      -11.4783523480
 H       -13.4013815626       -5.2259209934      -13.2105338406
 H       -12.9072366150       -6.1172094646      -11.8326361925
 H       -11.7358628789       -5.8376789626      -13.0508984328
 H       -12.7353797158        2.9621856223      -11.3165094713
 H       -13.1109632852        2.3981950824      -13.0906238211
 H       -11.9641827878        3.7277887884      -12.6163547869
 H       -11.0842051429        1.8450722293      -14.3907789355
 H        -9.6476123245        1.0182874800      -13.7267577461
 H        -9.8982821954        2.7250939332      -13.3270120032
 H        -5.9349529356        0.8482160454       -7.0080578762
 H        -4.8891824344        2.0950492184       -7.6758298758
 H        -4.3058794082        0.3889428470       -7.6169223317
 H        -4.2454894480        2.4142020798      -10.1500561387
 H        -5.8130044789        3.1623025968       -9.5863110656
 H        -5.5865924537        2.3598538455      -11.2068802029
 H        -0.7648774405       -4.3679248760       -8.6466717845
 H        -0.2559569461       -4.1870071193      -10.2266126395
 H        -1.9237772592       -3.6873994881       -9.8587379446
 H         0.9534822530       -3.3555148757       -7.7556833828
 H        -0.4503049582       -2.6079146934       -6.9890363715
 H         1.0173007733       -1.6909049624       -7.5494563507
 H         5.8175527193        2.0962689671      -11.3706036937
 H         4.2154223828        2.4052810566      -11.7206459802
 H         5.3050026133        2.3148693738      -13.1189169734
 H         3.4522768928       -1.0150943532      -13.3612508661
 H         4.2930009129       -0.1013277049      -14.5207123505
 H         2.9866599225        0.5452215171      -13.5702082589
 H         6.8938286362       -4.1043637409      -10.6823448192
 H         6.5119908002       -5.1771477656      -11.8227773402
 H         5.7091893166       -3.6575939558      -11.9962892311
 H         8.7872001223       -5.5227278305      -11.3940235601
 H         9.2463203741       -4.0491570323      -10.7130103839
 H         9.9690241200       -4.6781416465      -12.3232837416
 H         8.8424091581       -1.6154669834      -18.0229376098
 H         8.0467859777       -1.9174200002      -16.5648019442
 H         7.1717215931       -2.0750711874      -18.3109716204
 H         9.3121176703       -5.0194931832      -19.3433928809
 H         8.8018837623       -3.4549574147      -19.9281146982
 H         7.6132617588       -4.6449047614      -19.3790944180
 H        14.7989330338       -7.3028535969      -13.5834953737
 H        13.3485235673       -6.5493740457      -12.9582920523
 H        14.6949373629       -5.5616333193      -13.1814807194
 H        15.6763374281       -6.7391327708      -15.8928017581
 H        15.4713328680       -5.1790628666      -15.5540539577
 H        14.7320363944       -5.9143516328      -16.9675445758
 Na      -10.0293138193       -0.2662722837       -7.1873282623
 Na       10.8860341245       -2.6836214299      -14.4235379278
