232

 C        12.8415753286       -8.4496590284      -16.7823771408
 C        12.7952983169       -7.5334387375      -15.4937628232
 O        12.0162213509       -7.7929228805      -14.6359352474
 C        13.8136463652       -6.3829954195      -15.3893682030
 C        12.8614552852       -5.0316053065      -15.6169093256
 O        12.5215438359       -4.3387774990      -14.6378997073
 C        12.3206719377       -4.7171703074      -16.9870455894
 C        10.7528128557       -4.9579398533      -17.0214155955
 C         9.8976082793       -3.6389050232      -17.1583433533
 O        10.5128673840       -2.5899497128      -17.0598391488
 C         8.4444429746       -3.6332543841      -17.6328505995
 C         7.6574967451       -4.7312258592      -16.6650663483
 O         8.1040269660       -5.8268237329      -16.5685283211
 C         6.3432511672       -4.2984128060      -15.9402707226
 C         6.3614805910       -4.5254131890      -14.4335455140
 C         7.6905275585       -3.8945784768      -13.9505755258
 O         8.6277070143       -3.8501118911      -14.7553105543
 C         8.0064601732       -3.6527552859      -12.4149245583
 C         8.4862662039       -2.1677781998      -12.1895649506
 O         9.1296403588       -1.7198674803      -13.1401297212
 C         8.0600836815       -1.2413532260      -11.0905334806
 C         7.2756720019        0.0071153165      -11.5097511065
 C         6.0979129352       -0.3404052370      -12.3873623416
 O         6.2363470212       -1.3807062509      -13.0368604528
 C         4.7086930946        0.4149783295      -12.4062786524
 C         3.9691855532       -0.1732832110      -11.1332867696
 O         4.6029968426       -0.4873566200      -10.0954078366
 C         2.4759120068       -0.3855790149      -11.1377890063
 C         1.9327632311       -0.9887717075       -9.8242619523
 C         0.6303933836       -1.7841848874      -10.1925491841
 O         0.3643763226       -1.9083546495      -11.4355699698
 C        -0.4041093701       -2.2156201288       -9.0439988675
 C        -1.6341393102       -1.2350680156       -9.0744516746
 O        -1.7834865148       -0.4757757150       -8.1305091494
 C        -2.6494858481       -1.3412901195      -10.1813167743
 C        -3.4324070478        0.0102465522      -10.2328338555
 C        -4.9463773247       -0.1731724498       -9.8094547809
 O        -5.4749211417       -1.2544619859       -9.9901367681
 C        -5.7634241218        1.0192177617       -9.2170579199
 C        -7.3116824904        0.7081095426       -9.1574439876
 O        -7.7636707058        0.1311858292       -8.2098736392
 C        -8.2507091881        1.0702322186      -10.2928625598
 C        -9.7465658740        0.7056407817      -10.3209102853
 C       -10.5052511191        1.8980563351      -10.8877477990
 O       -10.5238823161        3.0664711174      -10.4396736667
 C       -11.1548380097        1.5740077436      -12.2833800916
 C       -11.8594310978        0.2182066940      -12.3077295178
 O       -12.2809297012       -0.2455403294      -11.2118267618
 C       -12.0439409877       -0.6223280347      -13.5764435647
 C       -12.5102281425       -2.0313895589      -13.3614729835
 C       -11.4900461244       -3.0078476575      -12.7456866288
 O       -10.3550761538       -2.8682108888      -13.1100074388
 C       -12.0530689809       -4.1839492668      -11.7673681499
 C       -11.1783808134       -4.9164510617      -10.6936763742
 O       -11.6903976582       -5.7863769992      -10.0094496087
 C        -9.8049891628       -4.2230006254      -10.4997465754
 C        -9.3271552570       -4.5828147367       -9.0115261807
 C        -9.4794166362       -3.3634810629       -8.1252940563
 O        -9.6173836856       -2.2281999383       -8.5260241871
 C        -9.2891163630       -3.5825417852       -6.4141418789
 C       -10.6306744634       -3.2388380555       -5.6199340223
 O       -11.0837326092       -2.1287831258       -5.8138194995
 C       -11.3258159780       -4.2466623387       -4.7769361633
 C       -12.3921066053       -3.5696530191       -3.9170325132
 C       -13.7812586173       -3.5671831581       -4.5207649763
 O       -14.0105022603       -4.0735845449       -5.6024340662
 C       -14.8835571231       -2.7262075834       -3.7965109306
 C       -14.7082008814       -1.1809504143       -4.4060729632
 O       -14.4365301885       -0.3507163442       -3.5798959429
 C       -14.9830691709       -0.8597593716       -5.8557412652
 C       -14.7169114242        0.5489836995       -6.1234501230
 C       -13.2167846356        0.7775243456       -6.2250647208
 O       -12.6009496560        0.0415525395       -6.9798171779
 C       -12.3688118317        1.8358244967       -5.3577483790
 C       -11.2255916722        2.5686005874       -6.1774348891
 O       -10.1653685573        1.9838553446       -6.4322892576
 C       -11.5301540682        3.8880789086       -6.9076472966
 C       -10.3216289464        4.8421800203       -6.5221070630
 C       -10.1347799990        5.0031344689       -4.9574045585
 O       -10.3668033685        4.0778060185       -4.2132727680
 C        -9.6356496180        6.4033640555       -4.2745809670
 C        -8.4904718387        7.0764250177       -5.3203297232
 O        -7.9323051963        6.3249715245       -6.1094539911
 C        -8.2236963517        8.5781367351       -5.2190455212
 C       -10.8888961174        7.3297152097       -4.2344061383
 C        -8.9041845319        6.1189444758       -2.9066510780
 C       -13.3912605929        2.8666361580       -4.7374057471
 C       -11.5497942048        1.2409129421       -4.1402271589
 C       -16.3776615154       -3.2005840495       -4.1117879485
 C       -14.7785964751       -2.6691994558       -2.2206862061
 C        -8.7451984822       -4.9552876960       -5.9895630063
 C        -8.2706905146       -2.4511169965       -6.0050086395
 C       -13.2261401897       -3.8303616769      -10.8058447025
 C       -12.3130722742       -5.3051176661      -12.7694115562
 C       -12.2705459476        2.6802852999      -12.5759215926
 C        -9.9653389873        1.5620706923      -13.2967545362
 C        -5.1339682068        1.2549093842       -7.8007912860
 C        -5.4827069054        2.3638916985      -10.0724174044
 C        -0.8389706213       -3.5411486635       -9.4699829549
 C         0.2104215130       -2.3611272942       -7.6105262105
 C         4.9503759046        1.9257217522      -11.8805824086
 C         3.8878266221        0.2814844510      -13.6897290375
 C         6.7387122842       -4.1066308266      -11.5819082432
 C         9.2895691183       -4.6464561071      -12.1113747564
 C         7.6796494585       -2.2616861818      -17.4734423257
 C         8.3505659215       -4.2540381090      -19.0688354264
 C        14.1927935049       -6.3023731223      -13.8693659484
 C        15.0422664471       -6.6075199663      -16.1938512952
 H        13.8967112286       -8.8570668735      -16.7548378350
 H        12.7993282739       -7.9289985996      -17.8115178947
 H        11.9670901851       -9.1758553436      -16.7582489710
 H        12.8289526511       -5.2541128752      -17.7826712157
 H        12.6514133289       -3.6386229161      -17.1285914823
 H        10.2400019906       -5.5099754390      -16.1984519022
 H        10.6552149190       -5.4657427569      -17.9697209063
 H         5.4213129412       -4.6521911731      -16.4459071460
 H         6.2162113869       -3.1439536530      -15.8304447187
 H         6.5550241836       -5.5185168840      -14.0748593076
 H         5.5144309217       -4.0812222953      -13.7718170082
 H         8.9416441372       -0.9445780473      -10.6178491456
 H         7.4185660428       -1.7938540894      -10.4024143215
 H         8.0027220018        0.6897447674      -12.0740128246
 H         7.1606652978        0.5518141612      -10.5605498044
 H         2.2824171217       -1.0413733548      -11.9862568414
 H         2.0633491000        0.6033982281      -11.3893552905
 H         1.8106651934       -0.1950268367       -9.0712469975
 H         2.7008855101       -1.6637926706       -9.4045298711
 H        -3.5294401042       -2.0243725349       -9.9354340083
 H        -2.2015217651       -1.6230043364      -11.1307607710
 H        -3.6023448165        0.3937275251      -11.2818431882
 H        -2.9336456581        0.7961823237       -9.6458497248
 H        -7.7486113921        0.7119120000      -11.2038238549
 H        -8.0914602756        2.1888338272      -10.3838411038
 H       -10.1656483809        0.5401562436       -9.3510094026
 H        -9.8518089651       -0.2870402307      -10.9001536527
 H       -11.1710215688       -0.6520663622      -14.2579722127
 H       -12.8690975167       -0.1121707078      -14.1214889404
 H       -12.8322097504       -2.4395599881      -14.3435654886
 H       -13.4440777715       -1.9328450277      -12.8717274112
 H       -10.0240943319       -3.1569493204      -10.5110111561
 H        -9.1005635893       -4.5113375929      -11.2815733920
 H        -8.2995790362       -4.9128326503       -8.9374398993
 H        -9.9553761943       -5.3222742523       -8.5571512876
 H       -10.7932746899       -5.0004639329       -4.1654158298
 H       -11.8525753790       -4.8131718778       -5.5231224481
 H       -12.2359142948       -2.5411255900       -3.4936894349
 H       -12.4320842125       -4.1026638393       -2.9198066638
 H       -16.0629310739       -1.1568708616       -6.0983521212
 H       -14.3441208929       -1.5188270977       -6.4678761494
 H       -15.1337286083        1.1741940579       -5.3290783464
 H       -15.2130851245        0.8851262944       -6.9876232873
 H       -12.5410382882        4.2405137413       -6.7519670813
 H       -11.3635585045        3.6459117823       -7.8848168459
 H       -10.4275359049        5.7842330718       -7.0621889489
 H        -9.4302393392        4.3517832628       -6.7863244817
 H        -7.4414414727        8.5572495517       -4.4634211401
 H        -9.0972785638        9.0486019667       -4.8362125779
 H        -7.9094857995        8.8642713089       -6.2658134518
 H       -11.6487705793        7.1469010046       -3.4557334830
 H       -11.2989960912        7.2982564609       -5.2916965672
 H       -10.6791303839        8.3727493464       -4.0714375590
 H        -9.5237870463        5.4802020702       -2.3394466975
 H        -8.8819726016        6.9139347448       -2.1756944879
 H        -7.9509426695        5.6974560271       -2.9843219619
 H       -12.8286673678        3.7366208252       -4.3734679336
 H       -13.9251510304        2.4003440077       -3.9329285658
 H       -14.0989716705        3.2076790374       -5.4016782691
 H       -11.2197057967        1.9843162348       -3.4580382338
 H       -10.6028578822        0.7091382113       -4.4658667724
 H       -12.1996925210        0.4222797661       -3.7236717105
 H       -17.1406379344       -2.5557269949       -3.7720519156
 H       -16.5807759902       -4.0953058291       -3.5763436437
 H       -16.6230721982       -3.5521072901       -5.0461881857
 H       -15.1053916787       -3.6246088919       -1.7909709370
 H       -15.5404009389       -1.9227175123       -1.9279001371
 H       -13.7967766816       -2.4065160103       -1.8747948062
 H        -7.7651704648       -5.1457988940       -6.4232623461
 H        -9.3624181021       -5.6645758379       -6.3653428951
 H        -8.6372969518       -4.8995978844       -4.9345288917
 H        -8.5469318934       -2.0839658800       -4.9355056332
 H        -8.3007742453       -1.5791611691       -6.7040731256
 H        -7.2980665728       -2.8822058372       -5.9013073303
 H       -12.8324243249       -3.0853831117      -10.0729247283
 H       -13.5690726811       -4.7721818635      -10.3198392642
 H       -14.1098790023       -3.4360289591      -11.3632635286
 H       -13.1077037439       -5.1532981108      -13.5528824045
 H       -12.6508942757       -6.1761590228      -12.2496265501
 H       -11.4391118225       -5.5310403407      -13.3309367519
 H       -13.2188255420        2.2395239439      -12.3606922920
 H       -12.1400085123        3.2221470933      -13.5138466749
 H       -12.1980375589        3.2695813373      -11.7076500780
 H       -10.2200021130        1.2169149372      -14.2517367032
 H        -9.3926401114        0.6922224947      -12.8726559024
 H        -9.3397411785        2.4062273417      -13.3186159272
 H        -5.2200539725        0.4405051961       -7.0847672899
 H        -5.5670784592        2.1475973560       -7.3926724219
 H        -4.0816978473        1.4312581514       -7.9622535913
 H        -4.5219166063        2.6166481276       -9.7163184910
 H        -6.2047421715        3.2171264703       -9.8347757102
 H        -5.4747333815        2.3120259118      -11.1479740372
 H        -1.8318517827       -3.7883290774       -9.0256875821
 H        -0.2546353404       -4.2823526222       -9.0447022046
 H        -0.9440320467       -3.6224742922      -10.5176966189
 H         1.1398838071       -1.8280617456       -7.2998855751
 H         0.3274574789       -3.3901732918       -7.2473263298
 H        -0.6153913237       -1.8812298267       -7.0500143012
 H         5.2052334306        1.8449994975      -10.8157849166
 H         4.0188451930        2.4570959052      -12.0555181180
 H         5.7093471019        2.5477423712      -12.4389065828
 H         3.9564204507       -0.6883441704      -14.1002997185
 H         4.3767458385        0.9094616936      -14.4254661571
 H         2.8165459111        0.3925526548      -13.7658864130
 H         7.1922715688       -4.1309529378      -10.5291959052
 H         6.4250356950       -5.1629054550      -11.7634955799
 H         5.8763149938       -3.4675003927      -11.5967275935
 H         9.4596108687       -5.3498265703      -12.9626874650
 H         8.9844000995       -5.2066471233      -11.2157821006
 H        10.2384566281       -4.1611891036      -11.9230652847
 H         8.0208294325       -1.4688228249      -18.0252942209
 H         7.9354207305       -1.9903004604      -16.4223532737
 H         6.5910401694       -2.2925091209      -17.6521096821
 H         8.2887200329       -5.3447756592      -18.9796173179
 H         9.2479170578       -4.1457028700      -19.7610029155
 H         7.4264429782       -4.0160491667      -19.5314261180
 H        14.7054579171       -7.2976334222      -13.5844792858
 H        13.2865146669       -6.1751120913      -13.2587784173
 H        14.6507425786       -5.3700215872      -13.5613519358
 H        15.6834191034       -7.4286470492      -15.8008121691
 H        15.7658291766       -5.7523294974      -16.0585034926
 H        14.9065458937       -6.8412037329      -17.2476214635
 Na      -10.1675553403       -0.3837366126       -7.1296937463
 Na       10.7154883489       -2.7429072369      -14.6472915712
