232

 C        12.7503232335       -8.3661559478      -16.7367733176
 C        12.6096929363       -7.4914221737      -15.4976983876
 O        11.8519526677       -7.7541373937      -14.5911681089
 C        13.6759221394       -6.2627598887      -15.4451943890
 C        12.9044761779       -4.9968069059      -15.7417655803
 O        12.5865120757       -4.3089715057      -14.7394039893
 C        12.2278155202       -4.6655160625      -17.1281790340
 C        10.7704673695       -4.9603097481      -17.2570397294
 C         9.9584928328       -3.6115878508      -17.2668793346
 O        10.4783603033       -2.5283355843      -17.0980471693
 C         8.3535521492       -3.7481501252      -17.5346357396
 C         7.6363513092       -4.6913659841      -16.5554604216
 O         8.1446383240       -5.7904426203      -16.4378455449
 C         6.3452974097       -4.2644215437      -15.9143165262
 C         6.3925881628       -4.5033739246      -14.4290001899
 C         7.7244073774       -4.0200187838      -13.8614543706
 O         8.5687410264       -3.6982869077      -14.6584911968
 C         8.0404803817       -3.7173866083      -12.3848331616
 C         8.4357233035       -2.0318565212      -12.4124824677
 O         9.3390739698       -1.6548223824      -13.1146791864
 C         8.0730900586       -1.2313877813      -11.1666149360
 C         7.2294314613        0.0297504708      -11.4646373616
 C         6.1366946768       -0.3851116197      -12.3849779503
 O         6.1681838355       -1.3145474453      -13.1775907758
 C         4.7638693783        0.4353878637      -12.3057026505
 C         3.9455258975       -0.1648979031      -11.1768316353
 O         4.5456524549       -0.5267724925      -10.1844368503
 C         2.3908271021       -0.3474581927      -11.2733264797
 C         1.9216952491       -0.8760206102       -9.9357357796
 C         0.6009832085       -1.7261165819      -10.0641389987
 O         0.2076759900       -1.9527131260      -11.2186033087
 C        -0.4015557999       -2.3364042307       -8.9507993241
 C        -1.6475659278       -1.2577647796       -9.0039532959
 O        -1.7480802106       -0.3899945547       -8.1663154899
 C        -2.6241427515       -1.2339694045      -10.2158207396
 C        -3.5659438399       -0.0193523119      -10.1983874448
 C        -5.0218504763       -0.1786760703       -9.8091070658
 O        -5.5088774057       -1.3073808518       -9.8270725317
 C        -5.7583635360        1.0657475978       -9.1542260255
 C        -7.2993500741        0.6917708862       -9.0866236306
 O        -7.7231836252        0.2940042242       -8.0028883798
 C        -8.1857053308        0.9924829344      -10.4030730481
 C        -9.6860366674        0.7792077832      -10.1787777138
 C       -10.4611795132        1.8679360955      -10.9159551251
 O       -10.4731689121        2.9856624076      -10.5510814854
 C       -11.0278051685        1.4320479325      -12.2738259488
 C       -11.7218311553        0.0747351051      -12.2004536773
 O       -12.1983196493       -0.4210279753      -11.1948040855
 C       -11.9107559234       -0.5747624339      -13.5395765779
 C       -12.5961118190       -1.9552187304      -13.2636039961
 C       -11.6030794969       -2.9190598201      -12.6367671740
 O       -10.3951629969       -2.9319937289      -12.9384290464
 C       -12.0851847586       -4.1809028951      -11.8267986457
 C       -11.1764881805       -4.8198415326      -10.7816365622
 O       -11.5484889893       -5.8271952524      -10.2417311379
 C        -9.7719633494       -4.3156789642      -10.3935262945
 C        -9.2808916243       -4.6498287215       -8.9179780932
 C        -9.4271792100       -3.3911042884       -7.9850817418
 O        -9.5425665241       -2.3105302378       -8.5234107000
 C        -9.2380758301       -3.4886778725       -6.4294277657
 C       -10.7101456819       -3.1725654494       -5.8237795808
 O       -11.0694512768       -2.0501339218       -5.8153699472
 C       -11.3668869713       -4.2064116392       -4.8958949798
 C       -12.3174505450       -3.5682991967       -3.9362846510
 C       -13.7881373722       -3.6256468606       -4.4976041275
 O       -13.8931951824       -4.1888887488       -5.5456164208
 C       -14.9592276784       -2.7556668255       -3.7658617137
 C       -14.8642873677       -1.2910534544       -4.3263315177
 O       -14.5389743482       -0.3646286031       -3.6190548902
 C       -15.1135309964       -0.8402798546       -5.8385247450
 C       -14.5786152825        0.6457482474       -6.0734714530
 C       -13.0276384641        0.7750207003       -6.1611439980
 O       -12.4815069104        0.0240233860       -6.9242915482
 C       -12.3206718617        1.8632518028       -5.2877028856
 C       -11.2177569035        2.4689091434       -6.2153899489
 O       -10.1805141124        1.8229135936       -6.4374162418
 C       -11.4431489154        3.9145412890       -6.6930064349
 C       -10.3197042865        4.9516312330       -6.5002281779
 C       -10.1214060602        5.0543884087       -5.0092252063
 O       -10.2850323134        4.0575892214       -4.3706289308
 C        -9.6386625253        6.4116614533       -4.3864193302
 C        -8.5393268562        7.0254103125       -5.2684646597
 O        -8.0173897364        6.2665629419       -6.0536459015
 C        -8.1623622825        8.5029435735       -5.2923969226
 C       -10.7712982448        7.4020982998       -4.2549865714
 C        -9.0266728500        6.1661931865       -2.9796486609
 C       -13.2889563471        2.9642514552       -4.6994092030
 C       -11.6464962015        1.1950972107       -4.1399924664
 C       -16.3200198800       -3.3767496283       -4.0305428467
 C       -14.8009031205       -2.5980314533       -2.2802246504
 C        -8.7962793437       -4.9407600862       -6.1569715048
 C        -8.2736244245       -2.4408031013       -5.8754470970
 C       -13.3940845911       -3.8088185078      -10.9557253340
 C       -12.4305619667       -5.3219221276      -12.8531840899
 C       -12.1821902544        2.5653173976      -12.7808123821
 C        -9.8735188304        1.5933444390      -13.3193455056
 C        -5.2792993658        1.2847523053       -7.7730010031
 C        -5.5619946401        2.3455888814      -10.0339400664
 C        -0.9799713688       -3.7169085091       -9.4525690958
 C         0.3223474794       -2.3772049137       -7.5673947809
 C         5.0562546296        1.9322507846      -11.8774567423
 C         4.0221992802        0.3782660745      -13.6294458064
 C         6.9555314556       -4.1185308820      -11.4120344018
 C         9.2464063091       -4.5914286957      -12.1692501487
 C         7.7469233900       -2.3166923901      -17.5392248044
 C         8.3059623601       -4.3026290818      -18.9864729737
 C        14.2154393305       -6.3452733173      -13.9218124690
 C        14.8765939998       -6.5501369856      -16.3978912932
 H        13.7519672108       -8.8305476288      -16.6439640969
 H        12.8543465892       -7.7484831430      -17.6100481209
 H        11.8818465492       -8.9963767872      -16.9511166043
 H        12.7500230837       -5.2050688194      -17.9334224242
 H        12.5654473952       -3.6038389670      -17.2668386017
 H        10.2620246216       -5.4019593423      -16.3433601064
 H        10.6283812549       -5.5719933166      -18.0909948227
 H         5.6223348574       -4.8855750925      -16.3575455248
 H         5.9885756773       -3.2399899650      -16.0491341418
 H         6.5549935573       -5.6048684989      -14.3237553718
 H         5.6924603969       -4.2218238645      -13.8045647356
 H         9.0802437740       -1.0222795641      -10.8209112565
 H         7.5543111344       -1.8750588256      -10.4858321884
 H         7.9061160923        0.7281547087      -11.9377111406
 H         6.9188894410        0.5797789762      -10.5405839604
 H         2.2254609270       -1.0294011226      -12.0936305373
 H         1.9125686877        0.6610385550      -11.5889108669
 H         1.8598344924       -0.0397507069       -9.2431993788
 H         2.7594636497       -1.5284789342       -9.4938462321
 H        -3.2397949078       -2.1285385771      -10.1717923769
 H        -2.0594336846       -1.2171201600      -11.1513205133
 H        -3.6039892052        0.5012941482      -11.1333343946
 H        -3.1342783998        0.7031858309       -9.4379690814
 H        -7.7490145897        0.3439540512      -11.2424741952
 H        -7.9050768518        2.0971896038      -10.7409618705
 H       -10.0016327918        0.9434374201       -9.0228406468
 H        -9.9151312882       -0.2998749101      -10.4242485671
 H       -10.8716206749       -0.8317382945      -13.9081111890
 H       -12.3652225402        0.1021157394      -14.2470539533
 H       -13.0388595314       -2.4574776857      -14.1473946960
 H       -13.4458536056       -1.7704514384      -12.6222935542
 H        -9.6905383353       -3.2166507394      -10.6146676748
 H        -9.1400989351       -4.9123423560      -11.0440026635
 H        -8.2128156160       -4.7032575731       -8.8994888859
 H        -9.7483579007       -5.6192766760       -8.6705174486
 H       -10.8135208470       -4.9445995379       -4.3815935066
 H       -12.0091131776       -4.7967175901       -5.6016247469
 H       -12.1846450173       -2.4968781801       -3.6951770741
 H       -12.1879504728       -3.9853225613       -2.8701724666
 H       -16.2420145745       -0.9329380984       -6.0037301395
 H       -14.6353942441       -1.5573396542       -6.5014472581
 H       -14.9920231132        1.3069908298       -5.3222554296
 H       -14.9601547973        1.0241141262       -7.0051516521
 H       -12.2571574114        4.2954863217       -6.0701911171
 H       -11.7142047689        3.9065061374       -7.7594817875
 H       -10.8133957808        5.8475850733       -6.8415758548
 H        -9.3752856110        4.7521756991       -6.9574341690
 H        -7.6206714115        8.6747741454       -4.3966547310
 H        -9.1549345667        9.0579036878       -5.3429324628
 H        -7.5431466867        8.4987152641       -6.2013732894
 H       -11.3858658243        7.0900965428       -3.3541054648
 H       -11.3504957423        7.4555714847       -5.1668036333
 H       -10.5038360113        8.4063951914       -4.0658276695
 H        -9.5289711852        5.3991562641       -2.4614929365
 H        -9.2002007810        6.9813116496       -2.2917441703
 H        -7.9728725752        5.9956434352       -2.9357885381
 H       -12.8299556774        3.8863884129       -4.5038708160
 H       -13.7228046507        2.5485365800       -3.7951918315
 H       -14.1150847873        3.1182773670       -5.3730790380
 H       -10.9615430965        1.8390269518       -3.5685697008
 H       -10.9510916088        0.4537772854       -4.5719859939
 H       -12.3851752097        0.5999040886       -3.5955948611
 H       -17.1442490737       -2.7674517304       -3.7272782899
 H       -16.5464398990       -4.3389759879       -3.5147773227
 H       -16.5326021662       -3.6760897932       -5.0352885366
 H       -15.3175789265       -3.4055183285       -1.7502938522
 H       -15.2603018871       -1.6122742245       -1.9382209393
 H       -13.6679789909       -2.6343534820       -2.0889293358
 H        -7.9801703984       -5.3211002297       -6.7453156516
 H        -9.6514432677       -5.5047987739       -6.4490339598
 H        -8.5008695007       -4.9583222936       -5.1133556548
 H        -8.3702340770       -2.4384134826       -4.7370682132
 H        -8.4994848184       -1.4722458205       -6.2364447620
 H        -7.2741914921       -2.7830833288       -6.0347911494
 H       -13.1169904568       -3.0156140798      -10.2649207962
 H       -13.7921949996       -4.7138442676      -10.4315727419
 H       -14.1579062266       -3.5170267135      -11.5959424066
 H       -13.0425411842       -5.0303786477      -13.6515497663
 H       -13.0064081884       -6.0761496334      -12.3276100013
 H       -11.6248491662       -5.7297535642      -13.3789213761
 H       -13.1450199904        1.9978072725      -12.8541376008
 H       -11.8025458969        2.9988942843      -13.6881331677
 H       -12.3444687583        3.2538345069      -11.9597068278
 H       -10.2693391748        1.4521075617      -14.3638048162
 H        -9.1973125151        0.8192505244      -13.1781999737
 H        -9.3701677794        2.5399637401      -13.2338995263
 H        -5.1149517028        0.2412797463       -7.3958985178
 H        -6.0531895772        1.7140580591       -7.1432785673
 H        -4.3302506211        1.8521718864       -7.6653674200
 H        -4.5111050724        2.6665952623       -9.9260929197
 H        -6.1936673961        3.1514975697       -9.6772800217
 H        -5.8882210401        2.2473269821      -11.0654084986
 H        -2.0145552057       -3.7209174351       -9.1744678705
 H        -0.6008234869       -4.4747968627       -8.7964656435
 H        -0.9324146349       -3.9799319374      -10.4953984983
 H         1.0482208347       -1.5570794676       -7.3058259678
 H         0.9286872981       -3.3359757213       -7.3739383564
 H        -0.5193655486       -2.3214179699       -6.8306286975
 H         5.4489326864        1.9962971330      -10.8542300691
 H         4.3275918803        2.5644976451      -12.1635490745
 H         5.8652621386        2.1969611676      -12.5922341168
 H         3.7817417732       -0.6419156167      -13.9261104295
 H         4.5435973812        0.8568763123      -14.4461352336
 H         2.9963860328        0.7239024201      -13.6506014858
 H         7.3537236493       -3.9603982397      -10.4583838062
 H         6.7056008390       -5.1571413508      -11.5060845194
 H         5.9581633628       -3.5005990587      -11.4813315138
 H         9.4010199508       -5.1840219167      -13.0409495303
 H         9.1682667730       -5.2011338143      -11.2073756110
 H        10.1640103773       -3.9677367533      -12.0615248375
 H         8.5430807823       -1.6899806490      -18.0892695526
 H         7.7833098059       -1.9078608843      -16.5147740247
 H         6.7652267130       -2.1057675496      -17.9602417887
 H         8.2591054060       -5.4138159021      -19.0901381710
 H         9.1975319926       -4.0382371241      -19.5560318070
 H         7.4104038126       -3.9645340967      -19.5103600357
 H        14.8815830235       -7.2177844675      -13.9854478834
 H        13.5037502828       -6.4694332332      -13.1108861551
 H        14.6340993780       -5.3695685764      -13.5575407554
 H        15.5033940260       -7.4795121929      -16.2384593867
 H        15.6408416493       -5.7571116296      -16.3182950627
 H        14.5754054399       -6.5593222330      -17.4664393870
 Na      -10.2763802876       -0.3436023428       -7.0653606603
 Na       10.7000390993       -2.8524724868      -14.6674131482
