232

 C        12.5311816670       -8.4124129814      -16.7674859075
 C        12.5718688084       -7.5385386886      -15.5372076746
 O        11.7327258107       -7.5983233007      -14.6398990948
 C        13.5527350608       -6.3215837407      -15.4662916803
 C        12.7734944733       -5.0235621213      -15.6909036239
 O        12.5305594303       -4.1605142423      -14.8726847847
 C        12.3021625630       -4.6460824293      -17.2082862652
 C        10.7922384006       -4.9166288158      -17.3646181084
 C         9.9276690051       -3.6413778628      -17.2871999710
 O        10.3942315176       -2.5427704973      -17.0408392646
 C         8.4834936947       -3.6846074856      -17.6664284049
 C         7.6682862998       -4.6921525215      -16.5491953854
 O         8.0898619715       -5.8226949172      -16.2506181675
 C         6.2956739301       -4.3989552954      -15.8871360578
 C         6.3535957990       -4.5977140748      -14.3751737071
 C         7.6889615316       -3.8508002042      -13.8872981666
 O         8.5171242832       -3.6080883702      -14.7401929144
 C         8.1719840705       -3.6450815841      -12.3696398964
 C         8.6459735671       -2.1860097210      -12.3166697949
 O         9.4251593866       -1.6800896915      -13.1272914506
 C         8.1172876867       -1.2955710244      -11.1065499525
 C         7.1631167588       -0.0439588912      -11.5280935889
 C         6.0617097552       -0.3683696688      -12.4565104275
 O         6.1762058463       -1.2645196942      -13.2548747015
 C         4.8405289052        0.5552180856      -12.3545193704
 C         3.9282904403       -0.2357807612      -11.0968335839
 O         4.4957276121       -0.6173982979      -10.1442582987
 C         2.3611229196       -0.3861460858      -11.1853162988
 C         1.6696955576       -0.8991649102       -9.8815433836
 C         0.4439839776       -1.7416132537      -10.1514384564
 O         0.0465717208       -2.0157072578      -11.2138507553
 C        -0.5026405206       -2.3171174118       -8.8962066279
 C        -1.5860090839       -1.1854476061       -8.9572441421
 O        -1.6093017016       -0.3568928401       -8.0857033454
 C        -2.5779704179       -1.1559929672      -10.1790221923
 C        -3.4998319139        0.0531369326      -10.1649731094
 C        -5.0306858556       -0.2772104880       -9.6979691600
 O        -5.6124880978       -1.3144770785       -9.6798839551
 C        -5.7954180697        1.0080138557       -9.1027717210
 C        -7.3297434555        0.7174649797       -9.0157128135
 O        -7.8795281365        0.4500608338       -7.9685233087
 C        -8.0923433111        0.8117554814      -10.2878673863
 C        -9.5493063626        0.8821665566       -9.9084871180
 C       -10.3591165697        1.8569849228      -10.9401478841
 O       -10.4556141016        3.0101837715      -10.5422251728
 C       -11.0019232113        1.3999151051      -12.3678373991
 C       -11.6436315421        0.0126637611      -12.2399956282
 O       -11.9855501508       -0.3962676289      -11.1863840355
 C       -11.7837812813       -0.7795648888      -13.5458036979
 C       -12.6261875898       -2.0781925914      -13.2417845981
 C       -11.6795938877       -3.0353690393      -12.6270300647
 O       -10.4637243573       -2.9008807284      -12.7113935051
 C       -12.2609540344       -4.1986119302      -11.8350670484
 C       -11.1256371792       -4.8227274568      -10.7556415507
 O       -11.3585688626       -5.9522681137      -10.3840608345
 C        -9.6120998303       -4.3044491189      -10.3423690016
 C        -9.2650077832       -4.5636823314       -8.9435128141
 C        -9.2904190601       -3.3156259268       -8.0199488074
 O        -9.5955427989       -2.2132678653       -8.4465284510
 C        -9.3040584553       -3.5512198360       -6.4697325040
 C       -10.6027713460       -3.1339000805       -5.8061704926
 O       -11.1103441518       -1.9715482853       -5.8225715551
 C       -11.3489697094       -4.1841115881       -4.9944628577
 C       -12.3021483177       -3.5678030551       -3.9462757542
 C       -13.8230778132       -3.4835273316       -4.4990300792
 O       -14.0995881828       -4.2514413017       -5.4150467402
 C       -14.9501426131       -2.7596771318       -3.8070969645
 C       -14.8977960747       -1.2652529207       -4.3290052603
 O       -14.5988075562       -0.3910778633       -3.5351252346
 C       -15.1719586010       -0.8469550953       -5.8732597938
 C       -14.6142443650        0.6051648803       -6.0224090018
 C       -13.0346610019        0.7624115666       -6.0882541950
 O       -12.3918480141        0.0821794439       -6.8729952905
 C       -12.3190558677        1.8072114843       -5.2273488326
 C       -11.1510072228        2.5583462476       -6.0905186467
 O       -10.2834020177        1.8572610095       -6.5578520786
 C       -11.4395832950        3.9838611305       -6.8308834031
 C       -10.3920145629        5.0479284420       -6.5450402295
 C       -10.0035971331        5.0882701210       -5.0063732499
 O       -10.1999913435        4.0851683933       -4.3224608299
 C        -9.6597261977        6.4495709060       -4.4180096783
 C        -8.5027851787        6.9482698946       -5.4232087528
 O        -7.8900715263        6.1608354829       -6.1045728294
 C        -8.0800312740        8.4943814971       -5.3280839023
 C       -10.8955993822        7.4371872993       -4.2456671632
 C        -9.1053971020        6.1885712281       -2.9714307109
 C       -13.2179941134        2.9250244547       -4.6365254365
 C       -11.7069274972        0.9868472756       -4.0214828662
 C       -16.2229109754       -3.5340817129       -4.1418434013
 C       -14.7016159681       -2.6459466181       -2.2331962899
 C        -8.7943223653       -5.0450419034       -6.1379475646
 C        -8.2402552555       -2.5753353449       -5.8445485360
 C       -13.6361219379       -3.7454649775      -11.2135998295
 C       -12.6263138110       -5.2325268437      -12.8879457264
 C       -12.0837495516        2.4020829505      -12.8772624290
 C        -9.8274122826        1.5296634281      -13.3336210038
 C        -5.3229529896        1.2774485552       -7.6566945355
 C        -5.5696169690        2.2925725115      -10.0236979061
 C        -0.9993912370       -3.7442410581       -9.3356937002
 C         0.2607183556       -2.3135770912       -7.6251503741
 C         5.1614211087        2.0189008265      -11.9734925970
 C         4.1595223545        0.5188381418      -13.7053493752
 C         7.0777494779       -4.0029216174      -11.2886781965
 C         9.4625502082       -4.4877957363      -12.0638984300
 C         7.9545178460       -2.2271948369      -17.6655896082
 C         8.1853672203       -4.3625140880      -19.0187413428
 C        14.2394699812       -6.2798289192      -14.0929350692
 C        14.6670600391       -6.3678298270      -16.5427173849
 H        13.3675296347       -9.0520376516      -16.7953109383
 H        12.5827250228       -7.7907448621      -17.6216478336
 H        11.5921035203       -8.8336773111      -16.8542909188
 H        12.7977783240       -5.3016402394      -17.9566993362
 H        12.7389330989       -3.6825863962      -17.3576619497
 H        10.4292850159       -5.5868445975      -16.6024248502
 H        10.5926920888       -5.3784594559      -18.3612445073
 H         5.5925591511       -5.0579092536      -16.3927428381
 H         5.8627768761       -3.4941716382      -15.9765113034
 H         6.3106040692       -5.6210053540      -14.0266633674
 H         5.6160589400       -4.0460176421      -13.7771435164
 H         9.1149392919       -1.0085458715      -10.6394712970
 H         7.5433178368       -1.9400226518      -10.4442781509
 H         7.7636266489        0.7558018086      -11.8460748080
 H         6.7215006179        0.3773135587      -10.6300364325
 H         2.1291365763       -1.0739329842      -12.0466439890
 H         1.9692654112        0.5937262199      -11.5054549130
 H         1.3883201677       -0.0258554880       -9.2614862645
 H         2.3873406577       -1.4533400191       -9.2427072969
 H        -3.1017053411       -2.0849391923      -10.1907773789
 H        -2.0024536069       -1.0278557141      -11.1052370512
 H        -3.5841670324        0.5330177363      -11.1149315445
 H        -3.0613634686        0.7861192896       -9.4792906162
 H        -7.7043167396       -0.0429486352      -10.9462976517
 H        -7.7850247593        1.7131055284      -10.8307792084
 H        -9.7360460277        1.3511883116       -8.8931565252
 H        -9.9482912766       -0.1241856641       -9.8613473502
 H       -10.8000666033       -1.0776757966      -13.8934732554
 H       -12.2300540173       -0.1469452336      -14.3170765716
 H       -13.1126113124       -2.4757307681      -14.1167542960
 H       -13.4831415920       -1.7705872087      -12.5575321358
 H        -9.6355346204       -3.2436940175      -10.6272833521
 H        -8.9467623046       -4.9146009991      -10.9761277884
 H        -8.2793018389       -5.0493895600       -8.7183596350
 H       -10.1236984314       -5.2541398253       -8.7289040357
 H       -10.6393875638       -4.6899994035       -4.3466322660
 H       -11.7316230725       -5.0259049687       -5.6324842478
 H       -11.9622315745       -2.5808723153       -3.6532264100
 H       -12.3090084637       -4.0532837280       -2.9809431547
 H       -16.2306090365       -0.8671986627       -5.9491829389
 H       -14.7596649575       -1.6036701894       -6.5819395317
 H       -15.0595800630        1.2121931317       -5.2309889834
 H       -14.9568534338        1.0563745356       -7.0108376744
 H       -12.4509404146        4.3027349619       -6.5347606737
 H       -11.3181857027        3.6782488640       -7.9660172863
 H       -10.7715341319        5.9995367711       -6.8843050203
 H        -9.4725466364        4.6528288519       -7.0779416839
 H        -8.0402496079        8.7333293272       -4.2457511972
 H        -8.9089008992        9.0174802069       -5.8089976759
 H        -7.1102501899        8.5018921714       -5.7670546688
 H       -11.5259282697        6.9208608275       -3.5580945753
 H       -11.3747026845        7.7419967841       -5.1257346771
 H       -10.6397846776        8.4136529305       -3.7501986327
 H        -9.6046173629        5.3516339590       -2.4151108453
 H        -9.1552182180        7.0133855052       -2.2870814294
 H        -8.0094517689        6.0076539847       -2.9816100071
 H       -12.6148625515        3.5873358311       -4.0268167902
 H       -13.9938190369        2.4072004012       -4.0727136673
 H       -13.7489813664        3.5211269499       -5.4592772278
 H       -10.8274729480        1.5735552606       -3.6571639938
 H       -11.2146194213        0.1079194535       -4.3560359724
 H       -12.4573837275        0.7353847929       -3.3079636648
 H       -17.1228457219       -2.9797597208       -3.7818967146
 H       -16.4076011167       -4.5452218724       -3.7812713724
 H       -16.4608480488       -3.6539786971       -5.2542624968
 H       -15.1249555572       -3.5731086645       -1.7387235479
 H       -15.1994334334       -1.7675529203       -1.7968136318
 H       -13.5888616389       -2.5991857337       -2.1176536731
 H        -7.9066976456       -5.2642519104       -6.7045360958
 H        -9.5473168215       -5.8938001373       -6.4029377104
 H        -8.4298202183       -4.9049625650       -5.1235723144
 H        -8.0621196320       -2.8111002948       -4.8903024018
 H        -8.6572996585       -1.5955015814       -5.8767850412
 H        -7.2392494876       -2.7101641948       -6.3090494946
 H       -13.4988642935       -2.8848344337      -10.6315470025
 H       -13.9911578832       -4.5400858766      -10.6433062912
 H       -14.3763666255       -3.6482148691      -11.9883502213
 H       -13.0901223043       -4.8454414079      -13.7300994754
 H       -13.2258208138       -6.0472363453      -12.5566238058
 H       -11.7197532108       -5.5597517801      -13.4139670016
 H       -12.9422048924        1.7484795034      -13.1001347191
 H       -11.6528971237        2.7841652824      -13.7979693121
 H       -12.4125889056        3.2110089693      -12.1658114262
 H       -10.1622365108        1.5000215058      -14.3952201417
 H        -9.0903895425        0.7680686104      -13.1967802874
 H        -9.3703036155        2.5390550052      -13.1703449887
 H        -4.9224830797        0.3036641048       -7.3268447863
 H        -6.1645178500        1.5154480329       -6.9507568365
 H        -4.5100144795        2.0417482885       -7.5639410184
 H        -4.5036833996        2.6207765702      -10.1034092448
 H        -6.0793931650        3.1101775831       -9.5863789458
 H        -6.0992098461        2.2055816788      -10.9729179851
 H        -2.0467906100       -3.8771253501       -9.1339081875
 H        -0.4522809659       -4.4844549373       -8.6839633844
 H        -0.8646380670       -3.9573504920      -10.4209628117
 H         0.6694208888       -1.3470549486       -7.3136608931
 H         1.1853117898       -2.8592817220       -7.9123645932
 H        -0.2065978093       -2.8040081784       -6.7299151367
 H         5.6339036684        2.0409451025      -11.0316227176
 H         4.3134884664        2.7398143657      -12.2212129534
 H         5.8607742388        2.3350420962      -12.6703620518
 H         3.5746901102       -0.3989787026      -13.9097187178
 H         4.7234773579        0.8040701234      -14.5833609249
 H         3.2806247788        1.1468221005      -13.7102999080
 H         7.3688697346       -3.7429154042      -10.2848984971
 H         6.8500537892       -5.0396606366      -11.4226865610
 H         6.1486072400       -3.4883335045      -11.4778298223
 H         9.6339183603       -5.2695218332      -12.8084393797
 H         9.4821233682       -4.7800428599      -11.0178074084
 H        10.3087825963       -3.7476285033      -12.1314095038
 H         8.6683229839       -1.6233724459      -18.3219035889
 H         7.7631296969       -1.6958189311      -16.7136491752
 H         6.9155624956       -2.2005620810      -18.1707285638
 H         8.3832908229       -5.4320175297      -19.0210428774
 H         8.8022232632       -4.0054331017      -19.8187794551
 H         7.1148276001       -4.2779838618      -19.3849891673
 H        14.9538584249       -7.0148294363      -14.0467266592
 H        13.6028761532       -6.3192762348      -13.2132850665
 H        14.5673829889       -5.2432303152      -13.9753450450
 H        15.1933104229       -7.3009961455      -16.7275032923
 H        15.4347437762       -5.6229279707      -16.4098784798
 H        14.2187312934       -6.1070547451      -17.5249464243
 Na      -10.1834645676       -0.3271901051       -7.1298650541
 Na       10.7368115803       -2.9393829107      -14.6966242456
