232

 C        12.0420431768       -8.3387119173      -16.7645002863
 C        12.1842533981       -7.2288893231      -15.6804852545
 O        11.3916277937       -7.1488344777      -14.7978038157
 C        13.4626136521       -6.2357744289      -15.7885878343
 C        12.6658012891       -4.8602416017      -16.0992070931
 O        12.1562404431       -4.3423596101      -15.1585255177
 C        12.1993802306       -4.4492398690      -17.6517698101
 C        10.7140275365       -4.7821467539      -17.8265789348
 C         9.7002243083       -3.5951269173      -17.5421309247
 O        10.0731146132       -2.5815429923      -16.9910149531
 C         8.1597221746       -3.9379216947      -17.7761768837
 C         7.5815663719       -4.7810728315      -16.5512004304
 O         8.1111260141       -5.8445013585      -16.2452333401
 C         6.3585457727       -4.2312836121      -15.7633866005
 C         6.6893805362       -4.3620132996      -14.2230343831
 C         7.9804211115       -3.6786184652      -13.8504609877
 O         8.7271450535       -3.2812351572      -14.7520006644
 C         8.4074960345       -3.5682288790      -12.3704141252
 C         8.8613083913       -2.0957231011      -11.9928205696
 O         9.7537684384       -1.5396755309      -12.6311623143
 C         8.0703703990       -1.2622989048      -10.9181618962
 C         7.2275644061        0.0090266616      -11.5879081414
 C         6.0296514376       -0.3616813038      -12.3604030947
 O         6.1508114434       -1.3427309123      -13.0944849286
 C         4.6778756447        0.3678175875      -12.3365670781
 C         3.7795432323       -0.2740368398      -11.1215309449
 O         4.3587061524       -0.6130568016      -10.0925844886
 C         2.2953551348       -0.4836484587      -11.3532779051
 C         1.6150226910       -0.8485909487      -10.0385210730
 C         0.3456914217       -1.7525712007      -10.3084448074
 O         0.1671653597       -2.1355963455      -11.4148508315
 C        -0.4377229040       -2.1280672660       -9.0083022328
 C        -1.5114086199       -0.9939645093       -8.9113132075
 O        -1.5003129104       -0.1015425519       -8.0780392470
 C        -2.7678369607       -1.1453953641       -9.7852615259
 C        -3.6314147003        0.0803433693       -9.8467192087
 C        -5.1013350489       -0.1567869385       -9.2624373078
 O        -5.6364535843       -1.2409024926       -9.2218054493
 C        -5.8605298557        1.0987957505       -8.7961599335
 C        -7.4262030746        0.6493037275       -8.6648672960
 O        -7.8502273161        0.5063672026       -7.5388050382
 C        -8.2644971409        0.5143843326       -9.9256307855
 C        -9.5577037196        1.2303191299       -9.7461987926
 C       -10.2515666434        1.8860238345      -10.9904335857
 O       -10.4497483873        3.1209651020      -10.8284883174
 C       -10.7040360873        1.3323879303      -12.4188011333
 C       -11.3697633512       -0.1204042784      -12.3990278941
 O       -11.4768775621       -0.6406587759      -11.2996408213
 C       -11.7932756683       -0.8847479556      -13.6688342966
 C       -12.6072968897       -2.2050425058      -13.3505526356
 C       -11.5926581181       -3.1424374921      -12.7022161151
 O       -10.4195212155       -3.0411814844      -12.9447459683
 C       -12.2034491379       -4.4035488485      -11.9394949750
 C       -11.2077172045       -4.9889464022      -10.8763531434
 O       -11.1873887789       -6.1731496157      -10.5876609935
 C       -10.6039677464       -3.9351896945      -10.0064634623
 C        -9.7371273904       -4.4896389059       -8.8964983923
 C        -9.4900943159       -3.4102211729       -7.8686962161
 O        -9.5444216472       -2.2722154801       -8.2752723878
 C        -9.1089700031       -3.7192852412       -6.4109223583
 C       -10.3161047568       -3.2071051784       -5.5749500614
 O       -10.6039531776       -1.9962312128       -5.6958287663
 C       -11.4037184263       -4.1783271646       -4.8905489188
 C       -12.4030310296       -3.4901045907       -4.0017596857
 C       -13.8493339017       -3.5866012942       -4.5468022987
 O       -14.0814497200       -4.1521774341       -5.5924513701
 C       -14.9142062306       -2.8151644613       -3.8203320160
 C       -14.6965857173       -1.2741722270       -4.1292120013
 O       -14.5337910421       -0.4284237697       -3.2660182116
 C       -14.8060885963       -0.9499835266       -5.7104282460
 C       -14.5526089221        0.4796569126       -5.8807347402
 C       -13.0301869103        0.7349459224       -6.0843371927
 O       -12.5147136511        0.2693303612       -7.0960862037
 C       -12.2798062100        1.7727636225       -5.1430293915
 C       -11.2838515458        2.6409753977       -6.0494077403
 O       -10.2842833263        2.1575520940       -6.5704492124
 C       -11.7495763265        4.0425477273       -6.6954900824
 C       -10.5314331331        4.9191777337       -6.6342228643
 C       -10.1002341200        5.0703460691       -5.1116147856
 O       -10.3020593303        4.1267397659       -4.3458999247
 C        -9.5482600722        6.4191855782       -4.5881331837
 C        -8.3021514334        6.8463231413       -5.4212333619
 O        -7.6076611030        6.1401804547       -6.1522154900
 C        -7.9444328332        8.3617067096       -5.2998275998
 C       -10.7783718019        7.3503771052       -4.7069800306
 C        -9.1831169889        6.2531158727       -3.0880156859
 C       -13.3018100376        2.6335281471       -4.4123449639
 C       -11.5238181589        0.7755932026       -4.1428156506
 C       -16.3498371854       -3.1628520591       -4.2816040603
 C       -14.7968431071       -3.0804223383       -2.2383327494
 C        -8.8440539857       -5.2001510541       -6.1885949643
 C        -7.8609969560       -2.8631818547       -6.0274986540
 C       -13.3980734667       -4.0019773923      -11.1237009878
 C       -12.6383278179       -5.4023450762      -12.9968092325
 C       -11.6798402827        2.3217864018      -13.1820883001
 C        -9.3470413161        1.2589498693      -13.2734375806
 C        -5.2355258060        1.3672856980       -7.3181838354
 C        -5.8159938165        2.3519350120       -9.7083575271
 C        -0.8503082182       -3.5283462687       -9.3158555637
 C         0.5306288748       -2.0950853623       -7.7040689664
 C         4.8278272089        1.8033648469      -11.7543879199
 C         4.0950059285        0.4201145801      -13.7029315057
 C         7.3266458362       -3.9291391365      -11.4006819338
 C         9.6842211790       -4.4861280912      -12.2335451074
 C         7.5719456628       -2.6078879835      -17.8795410436
 C         7.7862969796       -4.6977493725      -19.1204372811
 C        14.2066867449       -6.1699680362      -14.4278306536
 C        14.4654042171       -6.6335938253      -16.9834366911
 H        12.9293716242       -8.9537561855      -16.8697303853
 H        11.7377363554       -7.8867329017      -17.7493570925
 H        11.1630685576       -8.9593673403      -16.5729751146
 H        12.8648135288       -5.1388546485      -18.2588042400
 H        12.4285228975       -3.4168511525      -17.9566598642
 H        10.3385636930       -5.6082551360      -17.2617013925
 H        10.4721860533       -5.0460968807      -18.8973928017
 H         5.4380223797       -4.7375127804      -15.8794168166
 H         5.9747902879       -3.2930635447      -15.8919035449
 H         6.6937284740       -5.2919683144      -13.8080928634
 H         5.8946328140       -3.7440607658      -13.6257638336
 H         8.8280099344       -0.9117514734      -10.1800152747
 H         7.3611628480       -1.8735127741      -10.3827170659
 H         7.8788286793        0.7176936926      -12.0673391534
 H         6.9838778286        0.5978629252      -10.6951476448
 H         2.0514749662       -1.2552131087      -12.1320629519
 H         1.8150927384        0.4247704899      -11.7488287997
 H         1.4575221386        0.1227203560       -9.5066780109
 H         2.2632277356       -1.4425000566       -9.3488296856
 H        -3.3801779907       -1.9559100012       -9.4134264859
 H        -2.5209409068       -1.3751487067      -10.8382972090
 H        -3.6691432342        0.4118612779      -10.8864293463
 H        -3.2565568606        0.9858985762       -9.2997231245
 H        -8.6421057698       -0.6101982833      -10.0931232986
 H        -7.5795473190        0.8068585984      -10.7796906854
 H        -9.4979394291        2.1252499559       -9.0866874275
 H       -10.3397136829        0.5134927784       -9.2438000290
 H       -10.9310011360       -1.1202404756      -14.2995182773
 H       -12.4235257031       -0.1796454894      -14.2515520823
 H       -12.7781996045       -2.6577257417      -14.3112448214
 H       -13.6028122136       -1.9679979507      -12.8555532516
 H       -11.4640976773       -3.3471724114       -9.5960878154
 H        -9.9936998180       -3.1987877893      -10.5790904535
 H        -8.8202749204       -4.7899790135       -9.4030957816
 H       -10.1904772679       -5.2730415090       -8.3197525394
 H       -10.7628975685       -4.6981409497       -4.2092658743
 H       -11.8526682454       -4.9852282335       -5.4988884994
 H       -12.2321514014       -2.3537236424       -4.0232336622
 H       -12.4844554829       -3.8055642073       -2.9639753074
 H       -15.8277194192       -1.1937885146       -5.9153789256
 H       -14.1312212620       -1.6869404099       -6.2308099685
 H       -14.9063899704        1.0095094110       -5.0428519602
 H       -15.0723106994        0.7318242664       -6.8052161279
 H       -12.6498000453        4.4116777496       -6.2123068042
 H       -12.0417109743        3.7117331005       -7.7543735304
 H       -10.6686817783        5.8416064895       -7.1410497175
 H        -9.7437846173        4.3161597836       -7.1548214242
 H        -8.8196397676        9.0650381854       -5.1476898428
 H        -7.4568392150        8.5292415542       -6.2205560816
 H        -7.3813740386        8.3606784456       -4.3571152299
 H       -11.6147824653        6.7918567932       -4.3781301103
 H       -10.9888202396        7.6790888648       -5.7293079118
 H       -10.6009496703        8.2925671156       -4.0600464752
 H       -10.0143519625        6.3271844625       -2.4112851357
 H        -8.4019294989        6.8956891664       -2.8906610513
 H        -8.7648136368        5.3076568335       -2.8118961221
 H       -12.8944717414        3.5932862652       -4.1622542822
 H       -13.4431699898        2.1157373140       -3.5252904210
 H       -14.1904985603        2.7350680558       -4.9995716959
 H       -10.9304761860        1.3336602828       -3.3653426751
 H       -10.7330818531        0.2534007967       -4.6739398206
 H       -12.2776956056        0.1819382378       -3.6004989740
 H       -16.9858742007       -2.3251335810       -4.0007567893
 H       -16.8410764340       -3.9585827609       -3.8391881719
 H       -16.5992946808       -3.1421019362       -5.3345973999
 H       -14.4655293608       -4.1762042584       -2.0923164613
 H       -15.7693058976       -2.9724591787       -1.7313673776
 H       -14.1764240106       -2.3628107670       -1.6775099543
 H        -8.2274755558       -5.5084649882       -7.0059487288
 H        -9.7469257612       -5.8691673169       -6.0430748411
 H        -8.3009529511       -5.2994537637       -5.2534511253
 H        -7.6172785017       -2.9157278941       -5.0140120783
 H        -8.0729185387       -1.8133640074       -6.2789591438
 H        -6.9686935994       -3.2950453885       -6.5542882528
 H       -13.0813454265       -3.4287860150      -10.2488425028
 H       -13.8643218592       -4.8988987471      -10.7752654627
 H       -14.1333100133       -3.4045395688      -11.7736211326
 H       -13.5642367323       -5.1198786470      -13.4464725971
 H       -12.7710411968       -6.3788863100      -12.6122405112
 H       -11.9460371623       -5.4709266482      -13.8666942175
 H       -12.2354266552        1.7517735692      -13.8928658140
 H       -11.1101402391        3.0441579045      -13.7552816260
 H       -12.2048532304        2.9962869676      -12.4842736341
 H        -9.4007320999        1.1953016689      -14.3165094179
 H        -8.6860483385        0.4975526367      -12.8529884195
 H        -8.8571540534        2.2103526756      -13.1104585526
 H        -5.5372279721        0.6368120097       -6.6036742510
 H        -5.3792995728        2.3986055281       -6.9603465431
 H        -4.1625396914        1.2747385490       -7.4263598060
 H        -4.9029871991        2.9802659203       -9.6855703579
 H        -6.5193798660        3.0162912279       -9.2354015520
 H        -6.1034598723        2.2182492505      -10.7589554278
 H        -1.3655146028       -3.8827556621       -8.4770268846
 H        -0.0614586446       -4.1671739345       -9.7024119608
 H        -1.5533764208       -3.4362615511      -10.1198661863
 H         0.8904837666       -1.0405174151       -7.5708411926
 H         1.4806034265       -2.6491382131       -7.8803546405
 H         0.0277665990       -2.5629335886       -6.8086094299
 H         5.0977869748        1.7998333212      -10.7123291497
 H         3.8548015362        2.4455288611      -11.9197524194
 H         5.6380552423        2.2422836770      -12.2416137087
 H         4.1016586187       -0.5680048947      -14.1795186306
 H         4.4537421791        1.0725620056      -14.4812686282
 H         3.0331369533        0.6354110952      -13.6486520368
 H         7.6843065107       -3.7115153114      -10.3393849312
 H         7.1258104704       -5.0204286710      -11.4635048672
 H         6.4638073707       -3.3992951652      -11.4850048194
 H         9.3187784836       -5.4307222745      -11.7771319225
 H        10.4186272641       -3.9635158959      -11.6848126950
 H        10.1975978815       -4.7038668440      -13.2078801266
 H         8.0892531804       -2.0323943504      -18.5888482913
 H         7.5012773035       -2.0474368231      -16.9367267525
 H         6.4574809021       -2.5620093937      -18.1115357732
 H         7.9590502144       -5.7568350976      -19.0011051830
 H         8.2499970473       -4.4470866545      -20.0693638497
 H         6.7054124693       -4.6073835604      -19.4261383607
 H        14.5304842603       -7.2017043667      -14.1588539703
 H        13.4697639356       -5.8421494176      -13.6104428319
 H        15.1472146216       -5.5696232430      -14.4299442639
 H        15.0234399984       -7.5288818623      -16.6712957171
 H        15.1037282600       -5.7775230685      -17.2772639857
 H        13.9603024143       -6.8999691689      -17.9729549971
 Na      -10.1715097466       -0.2336981955       -6.9909714176
 Na       10.9931890482       -2.3837548492      -14.5526754391
