232

 C        11.7290800057       -8.4100733355      -16.6389499637
 C        11.9318539501       -7.1951647271      -15.7534031263
 O        11.2211376319       -7.0708629455      -14.8262497312
 C        13.0660399475       -6.0388009175      -16.1206602201
 C        12.4081176141       -4.7242755076      -16.3438933894
 O        12.2177985047       -4.0785004316      -15.3099692729
 C        12.0564943609       -4.2571221680      -17.7055075371
 C        10.6395900905       -4.6534280722      -18.0063127324
 C         9.5684292425       -3.5767143563      -17.6210215671
 O         9.9867145046       -2.5682727634      -17.0868663407
 C         8.1537617956       -3.9067231307      -17.9432471465
 C         7.6631413351       -4.6336723218      -16.5660915289
 O         7.9803788709       -5.7875756074      -16.3373521839
 C         6.5355421686       -4.1354727235      -15.6537637367
 C         6.8045669727       -4.2638129639      -14.1618922675
 C         8.0948182630       -3.5536712577      -13.7463127389
 O         8.7185876382       -2.9960142321      -14.6530542124
 C         8.5342419421       -3.4919795183      -12.2131113611
 C         8.8476212827       -1.9709209868      -12.0529074251
 O         9.8616980605       -1.4807314213      -12.5696879833
 C         8.2312249004       -1.1180848217      -10.8892996064
 C         7.3533622938        0.1007410504      -11.4660785903
 C         6.1642787911       -0.4677141544      -12.2042250512
 O         6.2208319195       -1.5630258221      -12.7534387159
 C         4.7659002584        0.3635666457      -12.3381357892
 C         3.9049684229       -0.3989721473      -11.3057265271
 O         4.4951809395       -0.7452567347      -10.3194033802
 C         2.4136497763       -0.5721371422      -11.4610184661
 C         1.6950520809       -0.6985628426      -10.1613478063
 C         0.4608641619       -1.7022628161      -10.2899098054
 O        -0.0108293214       -2.0530263272      -11.3134994143
 C        -0.3669194232       -2.1588061192       -8.9383885876
 C        -1.5614352333       -0.9689434546       -9.0070868057
 O        -1.4191028496        0.0219223780       -8.3256215717
 C        -2.9422318282       -1.2190132862       -9.7358879674
 C        -3.6919972612        0.0855661806       -9.6070085429
 C        -5.1716014792       -0.0936249001       -9.0872189552
 O        -5.6656651549       -1.1788221935       -8.9926685579
 C        -6.0249820981        1.1480223451       -8.6211671477
 C        -7.5411077476        0.7233000514       -8.5348478458
 O        -7.8806849156        0.3262608526       -7.4305603847
 C        -8.3526518813        0.6315087639       -9.7625102246
 C        -9.7535826070        1.1236351565       -9.6205200752
 C       -10.1741301232        1.9270186983      -10.9706383497
 O       -10.3068488414        3.1449625246      -10.8946785536
 C       -10.3969904627        1.1404106669      -12.4413990758
 C       -11.1082435905       -0.1565493196      -12.2203596219
 O       -11.0992806395       -0.7662427909      -11.1828142959
 C       -11.6649405103       -0.8379891366      -13.4919140710
 C       -12.4696831010       -2.0606969632      -13.3499818829
 C       -11.6884410191       -3.3312079693      -12.9079367861
 O       -10.5415298929       -3.4782371862      -13.2472404943
 C       -12.4160820966       -4.4703262692      -12.1636098387
 C       -11.3575713891       -4.8644380143      -11.0275142965
 O       -10.9555634162       -6.0036162763      -11.1950477417
 C       -10.8581170111       -3.8195597170       -9.9963867959
 C       -10.1069729145       -4.4301666568       -8.7121401130
 C        -9.6010951528       -3.4055868907       -7.7550475784
 O        -9.4882485065       -2.1820733517       -8.0306325267
 C        -9.0702870391       -3.8097546972       -6.2062842818
 C       -10.2141741076       -3.1849619316       -5.2490814043
 O       -10.1748856373       -1.9667259031       -5.0343484891
 C       -11.3311608248       -4.0777051850       -4.8324651049
 C       -12.3081101175       -3.4897529415       -3.8314291726
 C       -13.7354589801       -3.6570885521       -4.5338036573
 O       -13.8763964664       -4.0572194796       -5.6795894073
 C       -14.9376401505       -3.0085698498       -3.8175564143
 C       -14.6718862609       -1.4593443477       -4.2238018867
 O       -14.1990081739       -0.7588239227       -3.3468410813
 C       -14.8264662292       -0.9376317163       -5.6712685831
 C       -14.6110730570        0.5388686043       -6.0196234642
 C       -13.0872977551        0.8367658407       -6.1071265335
 O       -12.4307747947        0.1828143706       -6.8866904193
 C       -12.2766905892        1.8162757143       -5.1243385450
 C       -11.3554574439        2.6262986528       -6.1187833909
 O       -10.3338057779        2.0641768292       -6.5432960104
 C       -11.8115762105        3.9811320271       -6.7810509224
 C       -10.6516175988        5.0412435468       -6.5956252474
 C       -10.1442888918        5.1358035185       -5.1617059900
 O       -10.2668827152        4.2056796638       -4.3666312128
 C        -9.6106682835        6.4787099413       -4.6189403861
 C        -8.2830646754        6.7310168830       -5.4963561714
 O        -7.8199022355        5.9158858044       -6.2698522668
 C        -7.6533696116        8.1548696675       -5.2241673928
 C       -10.5842335283        7.7402284677       -4.8316056177
 C        -9.2039743866        6.3556520284       -3.1318707954
 C       -13.2302797934        2.7276129197       -4.2666055069
 C       -11.2125197021        1.0393292584       -4.2071273535
 C       -16.3284276465       -3.4965159535       -4.3425917202
 C       -14.9223380099       -3.0556194613       -2.2484514209
 C        -8.8992471434       -5.2962564812       -6.0665372155
 C        -7.7664197282       -3.0285029287       -5.8010992196
 C       -13.8012395557       -4.1675288600      -11.5603992483
 C       -12.5333097629       -5.6519290448      -13.0801194447
 C       -11.0646722640        2.1239195942      -13.5045274438
 C        -8.9550841373        0.8419061429      -13.1228922470
 C        -5.7216042435        1.5140838694       -7.0980959917
 C        -5.9067674060        2.3880559353       -9.5026143502
 C        -1.0950524618       -3.5285069965       -9.1378978981
 C         0.3429080424       -2.0899618072       -7.5928184945
 C         4.9872315931        1.8357874739      -11.9926863673
 C         4.1266847868        0.1603823751      -13.7659464662
 C         7.4686315240       -4.1789495340      -11.3051729939
 C         9.9264440720       -4.2748945563      -12.1281802983
 C         7.2399390842       -2.6765848787      -18.1465694371
 C         7.8838981344       -4.9295158399      -19.0586811198
 C        13.8578364793       -6.0309500818      -14.7364413951
 C        13.8437631427       -6.5721039194      -17.3278767144
 H        12.5892491233       -9.0663451167      -16.9080276805
 H        11.1484942140       -8.0822586866      -17.5497794644
 H        11.0746877107       -9.1246719520      -16.0754555815
 H        12.6001883437       -4.6677500080      -18.5755811928
 H        12.2109739957       -3.1919997996      -17.6065400731
 H        10.3813552205       -5.7019782187      -17.6314736513
 H        10.6042311247       -4.8796411402      -19.0493591322
 H         5.5225175905       -4.6512005478      -15.8786220306
 H         6.2729081820       -3.0929731687      -15.7386261066
 H         6.7829030063       -5.2876557399      -13.7756335590
 H         6.0608747941       -3.6734743971      -13.6286918943
 H         9.0156775475       -0.9336897086      -10.1708743050
 H         7.5563648090       -1.7293452244      -10.3704878348
 H         7.8903880115        0.8083887357      -12.1221445513
 H         7.1652112178        0.7660086275      -10.5582535408
 H         2.0931240723       -1.2725213585      -12.1729845013
 H         2.0263779570        0.3918847781      -11.8869595682
 H         1.2057056297        0.2126989891       -9.9857943638
 H         2.3049483246       -0.8917888266       -9.2821754267
 H        -3.5415099503       -2.0540850761       -9.3244121794
 H        -2.5903556879       -1.5296519976      -10.7589384791
 H        -3.6969208313        0.7718361048      -10.4113939682
 H        -3.1030891564        0.6973962998       -8.8477332608
 H        -8.4002099504       -0.4565056460       -9.9078943831
 H        -7.8436874043        1.1105433900      -10.5386905530
 H        -9.8696109451        1.8765347776       -8.8346156431
 H       -10.5206490910        0.3811725355       -9.4958614787
 H       -10.7774533390       -1.0888806494      -14.1188878545
 H       -12.1935649661       -0.1015839996      -14.0727556234
 H       -12.9381472499       -2.3460560495      -14.2750749151
 H       -13.2442134330       -1.7819652453      -12.6252960403
 H       -11.5926067901       -3.1724331635       -9.4981469573
 H       -10.3150670548       -3.1139014084      -10.6044850467
 H        -9.2422769815       -5.0183702928       -8.9457137786
 H       -10.7908547078       -5.0458066126       -8.0891321119
 H       -10.9645545571       -4.9438202475       -4.3508037508
 H       -11.7865283773       -4.5624482290       -5.7373779262
 H       -12.2883641662       -2.4045910676       -3.8139456713
 H       -12.1983846904       -4.0526735075       -2.8635253461
 H       -15.9263057103       -1.1220445729       -5.7011724479
 H       -14.2467258522       -1.6780773472       -6.2569461430
 H       -15.1096813940        1.2513422158       -5.3956226862
 H       -14.9716817866        0.5417518084       -7.0601318633
 H       -12.7767444020        4.2393328333       -6.6013341206
 H       -11.8072156410        3.7451409722       -7.8313151761
 H       -11.0230835955        5.9827903331       -6.9567342961
 H        -9.8286001856        4.7754367006       -7.2690739182
 H        -7.8230284229        8.9132412963       -6.0159812612
 H        -6.6067978186        7.9324708553       -5.2476637486
 H        -8.0741426616        8.3947867734       -4.2985160610
 H       -11.4775493416        7.5666899254       -4.2381019185
 H       -10.9336166079        7.7822694036       -5.8224680797
 H       -10.0698768302        8.6275795649       -4.3634533426
 H        -9.9191591762        5.6115338697       -2.6735584907
 H        -9.0594839054        7.2763533852       -2.5632263487
 H        -8.2779449857        5.7298237629       -2.9908932347
 H       -12.5516462657        3.2846348737       -3.6426558957
 H       -13.8226092415        2.1319698308       -3.5736456798
 H       -13.8039438067        3.3691942380       -5.0062617782
 H       -10.6109170845        1.6297408131       -3.4681310088
 H       -10.5788682091        0.6404070139       -4.9410476218
 H       -11.6657317351        0.2492564460       -3.6794700412
 H       -17.1519130812       -2.8305753919       -4.5507976273
 H       -16.6990371790       -4.1853061415       -3.6115922780
 H       -16.3595476642       -4.0414034221       -5.2995924698
 H       -15.3345165942       -3.9199753517       -1.7703348444
 H       -15.3538543268       -2.1832878809       -1.8899528042
 H       -13.9160169458       -2.9908959172       -1.9147989466
 H        -7.9798598305       -5.5445023432       -6.4650715227
 H        -9.7732242123       -5.8779472427       -6.4919547176
 H        -8.9864118749       -5.6538246205       -5.0633640216
 H        -7.7016965743       -3.1707099307       -4.7745412621
 H        -7.8440754950       -1.9116212943       -5.9490166040
 H        -6.8093124712       -3.3747685252       -6.3789699695
 H       -13.8003893664       -3.1983706923      -11.0667495818
 H       -14.0640925498       -4.9477394915      -10.8854782536
 H       -14.4486575725       -4.0151950803      -12.4400774558
 H       -13.0359640295       -5.3878582121      -14.0051609233
 H       -13.1342768601       -6.5178537369      -12.7021004410
 H       -11.5269416755       -6.1520990536      -13.2294291297
 H       -10.5134604918        2.0369455040      -14.4424115267
 H       -11.0460227410        3.1414146368      -13.2151492480
 H       -12.1452901523        1.9413639353      -13.5527000778
 H        -9.1222579356        0.3961251990      -14.1489158610
 H        -8.4876542109        0.0862389646      -12.5411590442
 H        -8.2358782020        1.6827566256      -13.2658661108
 H        -6.1241173794        0.6987354078       -6.5223740542
 H        -6.1856246500        2.4521727137       -6.7782605559
 H        -4.6549105361        1.5803883439       -6.8544779350
 H        -4.8578459611        2.7657772152       -9.5859739368
 H        -6.4927519794        3.2062824010       -9.1924513035
 H        -6.0296344895        2.1839080939      -10.5848235109
 H        -1.9978498603       -3.4919394979       -8.5667112001
 H        -0.3339313436       -4.2593051657       -8.7241384320
 H        -1.2128363623       -3.8302373326      -10.2099581732
 H         0.5223545040       -1.0423601718       -7.4375584612
 H         1.2479175234       -2.6583870113       -7.5555049607
 H        -0.2710774482       -2.4690629160       -6.8128051597
 H         5.3622428612        1.9706651367      -10.9901127016
 H         3.9265299406        2.2886163931      -11.7726502739
 H         5.5840368469        2.3768360254      -12.6853196596
 H         3.9391703164       -0.8914926096      -14.0319175682
 H         4.7576513087        0.4431085013      -14.5879959816
 H         3.2269508738        0.6959934794      -13.9542019994
 H         7.9266046590       -4.3333063609      -10.3048181439
 H         7.2974759100       -5.2686922506      -11.5154357960
 H         6.5647652399       -3.6382045160      -11.2021822568
 H         9.7327218798       -5.2839826224      -12.4368584220
 H        10.3126782136       -4.2875013310      -11.0984384949
 H        10.6637436505       -3.7635480886      -12.7740025687
 H         7.4906834467       -2.3076483832      -19.1307234813
 H         7.4037370174       -1.8709050684      -17.4993880436
 H         6.1745430517       -2.7978482897      -18.1517328748
 H         8.4839681749       -5.7892599033      -18.8437871159
 H         8.0479699738       -4.7058245782      -20.0543781470
 H         6.8154272772       -5.2531318937      -19.1265165514
 H        14.5051202967       -6.8487543794      -14.7307127776
 H        13.2488731385       -6.0333611424      -13.8259217977
 H        14.6500653660       -5.3174447302      -14.8175714061
 H        14.3197298449       -7.5178066859      -17.1620725320
 H        14.4989249848       -5.8113904013      -17.6341324543
 H        13.0630455588       -6.6943220156      -18.0989717187
 Na      -10.0750342397       -0.2655892020       -6.7935384212
 Na       10.7427104666       -2.1840092356      -14.7799097429
