232

 C        11.6596139057       -8.4063700639      -16.6390988333
 C        11.7096286462       -7.1514393205      -15.7700773695
 O        11.1385493124       -6.9764068978      -14.7088640445
 C        12.9212851427       -6.1482877061      -16.1682239481
 C        12.4025715666       -4.6079466384      -16.2630037573
 O        12.1419728175       -3.8631181171      -15.3273664721
 C        12.1609842110       -4.1556658180      -17.7442472853
 C        10.7060752503       -4.5842918878      -18.0731142712
 C         9.5386863166       -3.5340066368      -17.6957327781
 O         9.7358347069       -2.5414056906      -17.0315427988
 C         8.0482211575       -3.9514010991      -17.9066508577
 C         7.6168035418       -4.7033826193      -16.5502478271
 O         8.0720463798       -5.8006418167      -16.3254496316
 C         6.5878540428       -3.9539791185      -15.6700635648
 C         6.7956247975       -4.2791884687      -14.1881599480
 C         8.1277767937       -3.5551089060      -13.7030285852
 O         8.6692960639       -2.9303370253      -14.6038976173
 C         8.6757324097       -3.5553522302      -12.2587096882
 C         8.9658067345       -1.9759426391      -11.9875616949
 O         9.7540924412       -1.3773751331      -12.7117259843
 C         8.2377493237       -1.1293527259      -10.8457356422
 C         7.3535361334       -0.0233065400      -11.4368454868
 C         6.1811642487       -0.4800248424      -12.1977300493
 O         6.3286066128       -1.5929417926      -12.7437028363
 C         4.8143770414        0.2777436394      -12.3429196247
 C         3.8918158145       -0.3573596393      -11.2481678449
 O         4.5191770193       -0.8454356312      -10.2834841595
 C         2.3135248465       -0.5237413570      -11.4213004859
 C         1.6094320940       -0.8026487265      -10.0759320958
 C         0.3031950178       -1.7155307537      -10.2164926906
 O         0.0475720020       -2.0545217822      -11.3529925461
 C        -0.5286562185       -2.0220069623       -8.9472464323
 C        -1.5918939935       -0.9525972948       -8.9180539473
 O        -1.3613531137        0.1240522282       -8.4080406393
 C        -2.9257880765       -1.1492598065       -9.5907737090
 C        -3.7727767245        0.0933213657       -9.4459972018
 C        -5.1837911298       -0.0844036423       -9.0074996050
 O        -5.6718775782       -1.2275941690       -8.9278630460
 C        -5.9915975198        1.1876284834       -8.5308596247
 C        -7.4672131759        0.6123280623       -8.5214262549
 O        -7.9808876722        0.3602522344       -7.4590199970
 C        -8.3265008389        0.5749932662       -9.8184286255
 C        -9.7434123177        1.2030345789       -9.6369737790
 C       -10.1562288556        1.8785319905      -10.9654136438
 O       -10.2436677981        3.1220996753      -10.9373926171
 C       -10.2626502193        1.1172265517      -12.3908823114
 C       -10.9966639991       -0.2269493118      -12.2890258986
 O       -11.0241209138       -0.7820808229      -11.1580190842
 C       -11.5690417453       -0.9851288830      -13.5971169359
 C       -12.6381321389       -2.1096380795      -13.4311534903
 C       -11.7446083126       -3.3364361044      -13.0513749688
 O       -10.5942669545       -3.3421506812      -13.4089367664
 C       -12.4138914525       -4.5112377393      -12.1613320309
 C       -11.3328132530       -4.9128018931      -10.9421043667
 O       -10.6888542327       -5.9320614592      -10.9763671353
 C       -11.0005075582       -3.8160920110       -9.9443427533
 C       -10.3119342617       -4.4623150714       -8.7108781430
 C        -9.6155117144       -3.3362232745       -7.7680977105
 O        -9.6017965201       -2.2303940838       -8.1450829449
 C        -9.1425659859       -3.7992647973       -6.2440616197
 C       -10.1191504444       -3.1827396312       -5.2011774925
 O       -10.1152163918       -1.9929712447       -4.9233718218
 C       -11.2521413577       -4.1175123790       -4.7276778150
 C       -12.3818948322       -3.6081610766       -3.7543668806
 C       -13.7287002662       -3.6728242121       -4.5413072239
 O       -13.7947468339       -4.1406984383       -5.6593945477
 C       -14.9442326270       -2.9300503292       -3.8054757426
 C       -14.6415673171       -1.4451923284       -4.2206949269
 O       -14.0979309078       -0.6740334984       -3.4694942579
 C       -15.0035961679       -0.9588016401       -5.7568916030
 C       -14.6005126349        0.5330152206       -5.8116054803
 C       -13.0588964777        0.7019011719       -5.9239042511
 O       -12.4048433972        0.0494070397       -6.7336658273
 C       -12.2652642571        1.8363882810       -5.1545667803
 C       -11.3897058155        2.6357737896       -6.2682707199
 O       -10.3154485386        2.1732172905       -6.5898290484
 C       -11.7542315146        3.9703075080       -6.8896370517
 C       -10.7603933313        5.0858466781       -6.5359697918
 C       -10.3164573689        5.1659115662       -5.0934067190
 O       -10.2645907405        4.1946079225       -4.3621219397
 C        -9.5763231260        6.4771567893       -4.6847059503
 C        -8.2783073227        6.7299043920       -5.4693344764
 O        -7.9125325995        5.9010522458       -6.2774009079
 C        -7.4815366969        8.0611847823       -5.2015315424
 C       -10.4881781637        7.7362420087       -4.8483629106
 C        -9.1834776974        6.4680311780       -3.2159264699
 C       -13.1998785581        2.6799293091       -4.2914872669
 C       -11.3925729898        1.1200225596       -4.1571308060
 C       -16.2517954512       -3.4515944390       -4.4182283927
 C       -14.9105930590       -3.0482244644       -2.3181445623
 C        -8.9767540193       -5.3584746837       -6.0969578863
 C        -7.8052500235       -3.0616285024       -5.9558666693
 C       -13.8258145237       -4.2103717364      -11.5328650241
 C       -12.5119775179       -5.7336562312      -13.1327428757
 C       -10.8380571112        2.0849590069      -13.4295224392
 C        -8.8308368761        0.7978869179      -12.8765484397
 C        -5.6529135018        1.5186021247       -7.0671011545
 C        -5.7780955030        2.3922288775       -9.4625203491
 C        -1.1917157925       -3.4138646942       -9.1742502051
 C         0.2810933583       -2.0192395110       -7.6863546868
 C         5.0564222341        1.7420571505      -12.1789332891
 C         4.2472930791        0.1234255864      -13.8177482707
 C         7.6410625465       -3.9942572269      -11.2834495989
 C         9.9700078918       -4.3190191274      -12.1355913653
 C         7.2024170517       -2.6561231722      -18.2177800526
 C         7.7218917236       -4.9218251462      -19.0613202972
 C        13.8817967697       -6.1181818558      -14.8984283638
 C        13.7428661080       -6.5794572739      -17.4125271880
 H        12.6572870393       -8.9177415524      -16.6673112116
 H        11.2697316143       -8.2508139035      -17.7287803133
 H        11.0554898129       -9.2519103559      -16.1667016624
 H        12.7212259246       -4.5193139711      -18.6096263540
 H        12.2470391113       -3.0558954992      -17.6410068414
 H        10.4467145138       -5.4978382877      -17.5880143382
 H        10.6419286855       -4.9858130924      -19.1180909376
 H         5.5913165091       -4.1884955124      -15.9419358547
 H         6.7055231036       -2.8625080603      -15.7625708839
 H         6.8368845897       -5.2729670148      -14.1383836317
 H         5.9751191708       -3.8700998249      -13.4849033585
 H         9.0326905417       -0.6791909851      -10.2947694370
 H         7.7836463640       -1.7269127912      -10.0905448373
 H         8.0416054586        0.5996738303      -12.0610724968
 H         7.1841606975        0.6389569790      -10.5763079797
 H         2.2718856723       -1.4204737028      -12.0624954906
 H         1.8088821133        0.2363705060      -11.9902621315
 H         1.2997621289        0.1040925338       -9.5408159346
 H         2.3799030489       -1.2804565090       -9.4571821472
 H        -3.3515501621       -2.0750309101       -9.2076659235
 H        -2.6044612495       -1.3868528987      -10.6247562487
 H        -3.8052886797        0.8002963572      -10.2952162255
 H        -3.2133870598        0.7550295443       -8.7017185883
 H        -8.4431706885       -0.5676110467       -9.9886659942
 H        -7.7791338388        1.1313251769      -10.6517529367
 H        -9.6741315835        2.1022509473       -8.9957328331
 H       -10.6780525489        0.5696807240       -9.2495311746
 H       -10.7659899643       -1.4523070413      -14.1755397834
 H       -11.9318580603       -0.1335067808      -14.2169031673
 H       -13.0831978931       -2.3721461590      -14.3605795546
 H       -13.4557034470       -1.8520819852      -12.6994338030
 H       -11.7607541363       -3.1364358541       -9.5826060847
 H       -10.3383080692       -3.1223483963      -10.5176989673
 H        -9.5268290708       -5.0806922693       -9.1147771815
 H       -10.8949935195       -5.1154609740       -8.1314729469
 H       -10.9489141314       -5.0528715762       -4.3076799196
 H       -11.7002494077       -4.4848436465       -5.6664887609
 H       -12.3097218554       -2.4804566341       -3.4944263056
 H       -12.4656125474       -4.3236516340       -2.9347651647
 H       -16.0632870631       -1.1329338259       -5.7764352739
 H       -14.3903566014       -1.6698394240       -6.3955656150
 H       -14.9379358719        1.1014383331       -4.9959648834
 H       -14.9504738139        0.9496741472       -6.7360752933
 H       -12.7608720192        4.2425457174       -6.5751332044
 H       -11.9029739921        3.9051319950       -7.9506639117
 H       -11.2553880809        5.9481568144       -6.8656978527
 H        -9.8251784283        5.0809700138       -7.0743674628
 H        -7.4549503739        8.6956262413       -6.1053672914
 H        -6.4900104282        7.7577048048       -5.0234086084
 H        -8.0145041905        8.5167982229       -4.3475189124
 H       -11.2850807285        7.5433274788       -4.1638051811
 H       -10.9570411077        7.7928446769       -5.8432803556
 H        -9.9542155910        8.6018968659       -4.3904267156
 H        -9.8258942960        5.7326856416       -2.7086939897
 H        -9.2296787953        7.4402225470       -2.7583307549
 H        -8.2029269977        6.0268293963       -3.0329816985
 H       -12.6772733947        3.5514763748       -3.9002686831
 H       -13.4597862326        2.0968181753       -3.4525500521
 H       -14.0359588185        2.8997209293       -4.9203941436
 H       -10.8490488965        1.7785847923       -3.5038045589
 H       -10.6795376948        0.5256218307       -4.7736784133
 H       -11.9903447684        0.4276077202       -3.5263517944
 H       -17.0508332124       -2.7501041807       -4.4818588676
 H       -16.6485042064       -4.3162011352       -3.9754444744
 H       -16.1561522111       -3.7065608612       -5.4539256507
 H       -15.0958720096       -4.0685091876       -1.9854349016
 H       -15.5632575932       -2.3774071509       -1.8118874302
 H       -13.9295717819       -2.8867002985       -1.9962218330
 H        -8.0658280464       -5.6488498749       -6.6174345314
 H        -9.8365065483       -5.9328740441       -6.3374188253
 H        -8.8188715933       -5.6338832329       -5.0849539536
 H        -7.5228485889       -3.3211756406       -4.9009269234
 H        -7.9353473108       -1.9464873707       -5.9747128031
 H        -7.0743490140       -3.2755461534       -6.7161492452
 H       -13.7183584728       -3.4129091352      -10.7602090657
 H       -14.1237973031       -5.1485150175      -11.0703253653
 H       -14.5273244861       -3.7587967900      -12.3081428628
 H       -12.9975173377       -5.5099480636      -14.1083386323
 H       -13.0386732832       -6.6088065484      -12.7947952635
 H       -11.4870966081       -6.1486430834      -13.2138777315
 H       -10.3496084013        1.9468176571      -14.3579946650
 H       -10.7775985463        3.1454104618      -13.1984529947
 H       -11.9097067648        1.8852953696      -13.4993492838
 H        -8.8845211912        0.2641386189      -13.7746660557
 H        -8.2604427937        0.1044212262      -12.1802282947
 H        -8.2124180160        1.6733025232      -13.0734220744
 H        -5.4740649394        0.6102994009       -6.5563425798
 H        -6.4069027036        2.0716840231       -6.5120534609
 H        -4.7436723727        2.0602449090       -7.0530061554
 H        -4.9442610493        3.0493460443       -9.4423389335
 H        -6.6764999920        3.0283216142       -9.4378436739
 H        -5.6702046870        2.0127366456      -10.4754634034
 H        -1.9575791389       -3.5207858522       -8.4113956915
 H        -0.3555513650       -4.0609803187       -8.9533648343
 H        -1.5219765491       -3.6445340663      -10.1759055216
 H         0.3938776732       -1.0036722744       -7.2841704974
 H         1.1801822923       -2.4808748027       -7.9847638681
 H        -0.1216662148       -2.6606524691       -6.9063518487
 H         5.5695882424        1.9401111374      -11.2311844793
 H         4.1662161096        2.3648959156      -12.0131462504
 H         5.6778611990        2.0873721600      -13.0041876964
 H         3.7068738889       -0.7404169138      -14.1215274444
 H         4.9422702659        0.2639504497      -14.6377303447
 H         3.5440758541        0.9422044334      -13.9299930131
 H         7.9914938346       -3.8931475761      -10.2178808011
 H         7.3979092341       -5.0515695113      -11.2626290480
 H         6.7764690243       -3.4347265721      -11.4597366524
 H        10.0633929546       -5.2011148454      -12.8213680551
 H        10.0934285922       -4.6978955201      -11.1555704676
 H        10.6968129707       -3.5723692655      -12.4049603995
 H         7.4130685153       -2.4711964417      -19.1887552750
 H         7.3882352740       -1.7041642760      -17.7520009593
 H         6.1089537634       -2.7555170771      -18.2432761765
 H         8.3026451837       -5.8127967822      -19.0183540270
 H         7.9267373505       -4.5382070687      -20.0730325343
 H         6.6763424779       -5.2070077744      -19.1689123710
 H        14.7296879851       -6.8854330583      -14.8332802412
 H        13.2413390973       -6.2179017173      -13.9990802238
 H        14.5474030608       -5.2503415160      -14.9512877413
 H        14.4805153325       -7.3164213817      -17.1416841035
 H        14.2351199193       -5.6288892212      -17.6629193507
 H        13.1193829769       -6.9706406456      -18.2227956583
 Na       -9.9455527359       -0.3857188192       -6.7309272422
 Na       10.6229499036       -2.2233852914      -14.9004225935
