232

 C        11.4024069645       -8.2720772212      -16.5034885586
 C        11.6096939832       -6.9578444347      -15.7570781511
 O        10.9930788860       -6.6579602591      -14.7955580345
 C        12.8537937747       -6.0693292534      -16.1219149466
 C        12.2585244187       -4.6174018678      -16.2724812533
 O        12.1577811641       -3.9706782214      -15.2369725101
 C        11.8091426760       -3.9825018278      -17.5687766953
 C        10.4751345905       -4.4492998788      -18.3384325693
 C         9.3438812371       -3.5080717214      -17.8204683705
 O         9.5791390668       -2.4734329158      -17.2112448634
 C         7.8118725924       -3.9147604419      -18.0017338219
 C         7.5133464499       -4.5716344323      -16.5134675242
 O         8.0970182887       -5.6094640602      -16.2547508147
 C         6.4214048693       -4.0696000055      -15.5438866370
 C         6.8675698826       -4.3629946657      -14.0850013038
 C         8.0547993718       -3.5426381910      -13.7341299867
 O         8.6920476169       -2.9223299460      -14.5877551064
 C         8.5900495894       -3.4066505902      -12.3319370388
 C         8.9876794025       -1.8639919690      -12.1341652970
 O         9.7339313330       -1.2473500088      -12.8797876253
 C         8.4486772045       -1.1046115603      -10.9103258410
 C         7.2793253999       -0.1482873407      -11.3631663321
 C         6.1983283422       -0.6809449393      -12.2647396369
 O         6.3817273936       -1.6596676538      -12.9196649953
 C         4.8915134865        0.0716113751      -12.3149185860
 C         3.9550916190       -0.4586894345      -11.1624617388
 O         4.4756129326       -0.8514266925      -10.1696471960
 C         2.3699564614       -0.4153805741      -11.4080873040
 C         1.7454974232       -0.9317269497      -10.1177928353
 C         0.4679034035       -1.7431914879      -10.2815281525
 O        -0.0228698043       -2.0395335186      -11.3401554621
 C        -0.4921325070       -1.9616118644       -9.0055650765
 C        -1.4841491871       -0.6880358200       -8.9159438808
 O        -1.0998079057        0.3382867645       -8.4161156422
 C        -2.9415954418       -0.9610737271       -9.3684658164
 C        -3.8228418339        0.2369830237       -9.4069514584
 C        -5.2386871146       -0.1143662780       -8.9127264969
 O        -5.6752346496       -1.1985846785       -8.7650454916
 C        -6.0696305715        1.2154941480       -8.3885432275
 C        -7.4799794104        0.7617933823       -8.2805819231
 O        -7.9992197156        0.4083739917       -7.2217218508
 C        -8.1874950688        0.5410312528       -9.6254775226
 C        -9.5767502164        1.1428854386       -9.7558187005
 C        -9.9748774246        1.8640517569      -11.0855381550
 O       -10.3091879382        3.0228074604      -11.0895558050
 C       -10.0064855123        1.0699786711      -12.4048399368
 C       -10.9210589970       -0.3448403732      -12.3142836214
 O       -11.0404767005       -0.9804689306      -11.3330742183
 C       -11.6437334483       -0.7759162970      -13.5904538736
 C       -12.4240755051       -2.0309673440      -13.1872650670
 C       -11.5819302729       -3.3399605479      -13.0242502068
 O       -10.5726491571       -3.5810637285      -13.6425959844
 C       -12.2639829114       -4.4889355619      -12.1256135349
 C       -11.3058411475       -4.8848462312      -10.9550418027
 O       -10.5619938207       -5.8565995409      -10.9664978749
 C       -11.2533101769       -3.8585671530       -9.7700778855
 C       -10.5933410041       -4.3811130914       -8.6026878322
 C        -9.9422979564       -3.3327082290       -7.7373604227
 O        -9.8520390079       -2.1266171236       -8.1440276394
 C        -9.2338953807       -3.8337572935       -6.3717793466
 C       -10.1249091770       -3.3424554651       -5.1499433524
 O       -10.2866264992       -2.1593150252       -4.8871310603
 C       -11.1101056334       -4.2933151292       -4.5032025652
 C       -12.2473880834       -3.6849946783       -3.7357542730
 C       -13.6309912573       -3.7098900898       -4.5509505486
 O       -13.7531403411       -4.2994237358       -5.6025743869
 C       -14.8788886669       -2.8266784160       -3.9334914175
 C       -14.5283153377       -1.3722354766       -4.3009267605
 O       -13.8838485663       -0.7225456611       -3.4836441455
 C       -15.0416714318       -0.7021767305       -5.6673735704
 C       -14.5301656411        0.6570163322       -5.8789715165
 C       -12.9462691868        0.6081821719       -5.8043634316
 O       -12.3798410377       -0.3325725804       -6.3144234079
 C       -12.2357866264        1.8505677980       -5.1176026823
 C       -11.4021138433        2.5087281273       -6.1712026908
 O       -10.4447662703        1.9612639980       -6.6840389427
 C       -11.7839034567        3.9611090298       -6.6533722572
 C       -10.8657817338        5.1567908964       -6.5171874656
 C       -10.3446974261        5.2661932987       -5.1338062180
 O       -10.4885941991        4.3304321444       -4.3577653536
 C        -9.5237621546        6.5707941410       -4.7025123861
 C        -8.2340936319        6.7051696956       -5.5452214834
 O        -8.0951395823        5.8755433480       -6.4113330900
 C        -7.1452716119        7.8174396156       -5.1523642788
 C       -10.4904770898        7.7131599331       -4.8950640633
 C        -9.2252708414        6.4792819338       -3.2152894777
 C       -13.2448632116        2.8793859289       -4.6155997957
 C       -11.3431457816        1.2336547030       -4.0070750350
 C       -16.1097551187       -3.3656879014       -4.6386901857
 C       -14.9624379124       -3.0429585891       -2.3827127263
 C        -9.0158593676       -5.3516593347       -6.3285579508
 C        -7.8425143892       -3.1279135733       -6.4561168001
 C       -13.7208478864       -4.3133738166      -11.5164206641
 C       -12.3083484136       -5.7288285419      -13.0384857826
 C       -10.6429173715        1.9281820678      -13.4425938103
 C        -8.5887461266        0.5720787661      -12.8391736151
 C        -5.4047158264        1.5046612361       -6.9016309211
 C        -5.9223565461        2.3050153959       -9.4395642554
 C        -1.2390016931       -3.3110032128       -9.2652915199
 C         0.2743102397       -2.0486294971       -7.7351981087
 C         5.1458252457        1.5561960225      -12.1734760530
 C         4.3426981835       -0.2336167078      -13.7140005758
 C         7.7840428077       -4.0505291015      -11.1268606042
 C         9.9841742018       -4.1921205274      -12.3176283047
 C         7.0704243274       -2.6481302461      -18.3178085302
 C         7.7730664870       -5.0271333702      -19.1025695394
 C        13.9081791049       -6.0671379786      -14.9866830993
 C        13.5442541193       -6.4728345629      -17.5927765018
 H        12.1910114753       -8.9543905987      -16.2773223850
 H        11.4148643495       -8.1694009773      -17.5411050519
 H        10.5866853921       -8.8263620913      -16.1414603653
 H        12.6413331015       -4.1435046023      -18.2676698671
 H        11.6821027253       -2.8921160561      -17.4162181668
 H        10.1694387846       -5.5327797744      -18.2713745224
 H        10.5222689702       -4.3686942259      -19.3919360189
 H         5.5139854841       -4.7422571732      -15.7502431287
 H         6.2252853886       -2.9881831377      -15.5600189294
 H         7.1843725047       -5.5201388710      -14.0847335254
 H         6.1863477786       -4.1781100518      -13.2910087287
 H         9.3232631945       -0.5252239585      -10.4700445620
 H         8.2667355912       -1.7998789628      -10.0534689567
 H         7.8224030954        0.6341730599      -11.8588696961
 H         6.8657711214        0.2601102702      -10.4272389520
 H         2.1107667554       -0.7495334893      -12.4203886126
 H         2.1016659383        0.6766754350      -11.3836082244
 H         1.4472098394       -0.1249715871       -9.4223833383
 H         2.5323856987       -1.5124139969       -9.5830804976
 H        -3.1128561331       -1.8218243890       -8.7279687494
 H        -2.9343535452       -1.3671588581      -10.3636563319
 H        -3.7767173224        0.6927083851      -10.4003456300
 H        -3.3964555921        1.0491983870       -8.8416512293
 H        -8.2172373254       -0.5070122258       -9.8115159175
 H        -7.6057509773        1.0407816368      -10.3277729836
 H        -9.8512424537        1.8914858318       -8.9999765507
 H       -10.2758330100        0.3834785135       -9.6885997987
 H       -10.9199596313       -1.0713138857      -14.3723934633
 H       -12.2570496930       -0.0202745865      -14.0537669239
 H       -13.1900685029       -2.2413565759      -13.9997259896
 H       -12.9571860587       -1.9156995253      -12.2687620957
 H       -12.2148080777       -3.3972204545       -9.4480991270
 H       -10.7142114599       -2.9584973943      -10.0506172118
 H        -9.9086641927       -5.2177667755       -8.9301428275
 H       -11.2130862754       -4.9106755875       -7.7910970750
 H       -10.5751976219       -5.0311368703       -3.8238156948
 H       -11.5061384338       -4.9583771920       -5.2985314833
 H       -11.9631594944       -2.7050456443       -3.5524212724
 H       -12.5180874393       -4.3263534211       -2.8936480996
 H       -16.1142130346       -0.6945656261       -5.4377512730
 H       -14.8018259905       -1.4100650884       -6.3831071271
 H       -14.8463790335        1.3806628244       -5.0896816006
 H       -14.9514412548        0.9825421102       -6.8674250723
 H       -12.7748306488        4.2463010735       -6.3049957407
 H       -12.0891243631        3.8300139013       -7.7491563988
 H       -11.4744976242        6.0750991037       -6.8169549672
 H       -10.0124456721        5.2159143083       -7.2486742897
 H        -6.8869498915        8.2748209794       -6.1189234818
 H        -6.1951821888        7.2824178768       -4.8233961048
 H        -7.5170153584        8.5076287604       -4.4281417322
 H       -11.4200996920        7.4924332451       -4.3420547936
 H       -10.7017317589        7.7698607501       -5.9289348191
 H       -10.0518275635        8.5810820105       -4.4478113890
 H       -10.1108047728        6.2319290583       -2.6269400528
 H        -8.9868658229        7.4904349983       -2.8918315856
 H        -8.4021332550        5.7742623859       -3.0417345894
 H       -12.6678027754        3.6544212973       -4.1964551046
 H       -13.8565143692        2.3965661302       -3.8368270283
 H       -13.9254462071        3.1403401129       -5.4321460019
 H       -10.8327234175        2.0783229124       -3.4451731457
 H       -10.6270842648        0.5309688859       -4.3979251279
 H       -11.9591157595        0.7037752644       -3.2983926025
 H       -17.0264335209       -3.0536099555       -4.1098709331
 H       -16.0993956232       -4.4758934745       -4.7575525593
 H       -16.3369694643       -3.0958879592       -5.6854575747
 H       -14.4756889280       -3.9805455712       -2.0117145788
 H       -16.0450766130       -3.1248331790       -2.1040810935
 H       -14.3966993590       -2.2723867924       -1.7539133723
 H        -8.4951260577       -5.7876664351       -7.1735362020
 H       -10.0479363328       -5.8854894603       -6.2667633238
 H        -8.4155054883       -5.7097794705       -5.4518879263
 H        -7.2377971811       -3.3526663450       -5.6750962410
 H        -8.0054503175       -2.0831370467       -6.4876908074
 H        -7.4082184052       -3.2509867775       -7.4684269647
 H       -13.6653550706       -3.4565212005      -10.8563941846
 H       -13.8515067042       -5.2347446264      -10.9347397321
 H       -14.5054843332       -4.1082770048      -12.2102888369
 H       -13.1236356523       -5.7644740355      -13.6726116726
 H       -12.3809900618       -6.6123634419      -12.4140944358
 H       -11.3721027180       -5.9398068611      -13.4896131273
 H       -10.7796376123        1.2941902835      -14.3822700452
 H        -9.8850328868        2.6307758260      -13.7999953262
 H       -11.5726562060        2.4789006021      -13.2009010941
 H        -8.5363663676        0.7392934900      -13.9556427497
 H        -8.3324790735       -0.4092421332      -12.7424074055
 H        -7.8022734602        1.1689232439      -12.4070197964
 H        -4.6779187861        0.7809800921       -6.4981146961
 H        -6.2450551446        1.4430187809       -6.2271565486
 H        -4.9371161047        2.4998976193       -6.8036481569
 H        -4.9360297626        2.7914791569       -9.4565345375
 H        -6.6215254487        3.1029746433       -9.3286282794
 H        -5.9258959498        2.0215610704      -10.4956123513
 H        -1.5886034211       -3.6914699040       -8.3357566218
 H        -0.4661421686       -3.9800879238       -9.6679824181
 H        -2.0571337502       -3.1515357621       -9.9437906858
 H         0.6657482864       -1.0260833214       -7.5652934967
 H         1.0451158525       -2.9027852929       -7.7773501624
 H        -0.3542654390       -2.1861637425       -6.8298010427
 H         5.3008218850        1.9676769641      -11.2049375629
 H         4.2418149730        2.1127976651      -12.5795911805
 H         5.9194791020        1.8312684582      -12.8572378612
 H         4.0556591733       -1.2851469766      -13.9678128817
 H         5.1117881594        0.0268662215      -14.4477860197
 H         3.4730228562        0.3532209757      -14.0272944748
 H         8.2466935870       -4.1048362291      -10.1786977681
 H         7.5046533540       -5.0989942010      -11.3312295322
 H         6.7982549625       -3.5750550799      -11.0308453841
 H         9.9287872560       -4.9357497138      -13.0696320525
 H        10.0695487409       -4.8238631550      -11.4011108931
 H        10.7952676459       -3.5205177673      -12.6410280089
 H         7.2921626978       -2.0664196719      -19.2996990105
 H         7.2207249720       -1.8357335001      -17.5707947133
 H         5.9803338821       -2.8164815029      -18.4065560832
 H         8.1170345184       -6.0515847915      -18.8406816387
 H         8.3311411897       -4.7708200480      -19.9973373449
 H         6.7470830114       -5.2071552889      -19.4959861543
 H        14.1937792118       -7.0262490472      -14.6605738420
 H        13.4953973198       -5.5876042504      -14.0922603996
 H        14.8574840186       -5.7053626508      -15.3962583564
 H        13.5585900044       -7.5811664751      -17.6210704063
 H        14.5340553855       -6.0536319302      -17.7278819722
 H        12.7862185749       -6.2298214817      -18.3532995486
 Na      -10.0545588369       -0.4267631802       -6.5099299411
 Na       10.7424033710       -2.1132231843      -15.0083556481
