232

 C        10.9987687728       -8.0471011830      -16.3021926247
 C        11.3097344658       -6.7027557258      -15.6793115414
 O        10.7576243530       -6.1860263765      -14.7754128831
 C        12.6554760584       -5.8764881609      -16.3265057977
 C        12.2279240300       -4.4104296860      -16.3632338351
 O        11.8860675905       -3.8307602862      -15.3524044078
 C        11.8220095331       -3.7125968827      -17.6547108469
 C        10.3148308040       -4.2471839179      -17.8833156617
 C         9.1608826120       -3.2250497217      -17.7533900657
 O         9.2238684233       -2.0724986348      -17.2706411126
 C         7.7542625422       -3.8428955970      -17.8622569767
 C         7.4779090229       -4.7612666242      -16.5052164841
 O         8.1914439008       -5.6988150902      -16.2666437729
 C         6.3302749254       -4.3121910999      -15.6231894419
 C         6.7936549979       -4.3271070984      -14.1335927045
 C         8.1390732887       -3.6609952727      -13.9920058049
 O         8.6618821048       -3.1372720928      -14.9423977957
 C         8.8184634470       -3.3873589447      -12.6202658236
 C         9.0749509214       -1.8352239147      -12.3762239050
 O         9.9079844792       -1.1990718512      -13.0135540486
 C         8.5537117471       -1.2276543280      -11.0583785719
 C         7.3453536264       -0.3212475441      -11.1543493768
 C         6.3231993674       -0.8069066411      -12.2007112008
 O         6.6050019571       -1.6134442906      -13.0198246864
 C         4.9958359011       -0.1726943623      -12.3590641702
 C         4.0819688920       -0.5666035493      -11.0800433899
 O         4.5845007956       -0.8241617822      -10.0433039241
 C         2.5295925013       -0.5374258633      -11.2550333601
 C         1.8457161338       -0.7307990730       -9.9366403867
 C         0.5439035947       -1.6325495799      -10.1912227179
 O         0.1466318000       -1.7993196052      -11.3372735969
 C        -0.3793475996       -2.0868886590       -9.0378837070
 C        -1.3233772878       -0.7482026716       -9.0662550804
 O        -0.8720650973        0.2988796385       -8.7072448725
 C        -2.8636682359       -0.8266654587       -9.3830087233
 C        -3.6609112197        0.4651142938       -9.1264480428
 C        -5.1176531961        0.1736120799       -8.7279358592
 O        -5.5107564597       -0.9532107985       -8.6796932125
 C        -6.0458279207        1.3442403967       -8.1340642059
 C        -7.4965745311        0.7128525865       -8.0882293572
 O        -8.0523936347        0.6086026120       -6.9995174186
 C        -8.1974107446        0.1738707251       -9.3149155739
 C        -9.4173359709        1.0470040062       -9.7905533803
 C        -9.6869075428        1.7231735832      -11.1603730698
 O       -10.2811341438        2.7446032753      -11.1591401865
 C        -9.7482820392        0.8247298900      -12.4428500903
 C       -10.7859514501       -0.4314438935      -12.3215081680
 O       -10.7561615404       -1.0710799994      -11.3246671784
 C       -11.6338711025       -0.7873717007      -13.5047079917
 C       -12.4944016723       -2.0541728496      -13.0433427178
 C       -11.7187494557       -3.3831239719      -13.1188613744
 O       -10.6200270608       -3.3712919295      -13.6180902138
 C       -12.2817955531       -4.7944314294      -12.2909895808
 C       -11.3606190745       -4.8666473085      -11.0187815926
 O       -10.3698132428       -5.5689162134      -10.9513585688
 C       -11.6394242386       -3.7960552025       -9.8915871623
 C       -11.0070645259       -4.4329263259       -8.6314107022
 C       -10.3055921113       -3.3103777614       -7.7053780731
 O       -10.6857475931       -2.1412384324       -7.7906405234
 C        -9.3426310479       -3.8564675089       -6.4292777119
 C       -10.1428925624       -3.4233639715       -5.1347204945
 O       -10.1869254749       -2.1737215481       -4.9582155729
 C       -10.9588347439       -4.4259608112       -4.3128232886
 C       -12.1161267832       -3.6913445887       -3.6662825738
 C       -13.3793518925       -3.7419748199       -4.4916044886
 O       -13.4388693033       -4.3482783187       -5.5473425625
 C       -14.6548745745       -3.0097206170       -4.0972604765
 C       -14.5000530993       -1.3976998432       -4.3607030432
 O       -13.7013125910       -0.7706838922       -3.6891025472
 C       -15.1782950088       -0.6888615982       -5.5721775607
 C       -14.4483616652        0.6563452561       -5.9184831526
 C       -12.9973900933        0.6231782767       -5.4546087218
 O       -12.2683498026       -0.3138379166       -5.7161944892
 C       -12.3433288052        2.0180053964       -4.9298961224
 C       -11.6402019252        2.6187882858       -6.1761078369
 O       -10.7614116039        1.9133093731       -6.6083299617
 C       -11.8524965130        4.0089722107       -6.8595166387
 C       -10.6275909842        4.8835381379       -6.6795542532
 C       -10.3881102296        5.2118735904       -5.1387970129
 O       -10.9082828465        4.5207410157       -4.2830508878
 C        -9.4593591454        6.5126936736       -4.7792454355
 C        -8.2220996529        6.5405028597       -5.5710702692
 O        -8.1311172326        6.0481808560       -6.6815385121
 C        -7.0002437830        7.3669736091       -5.0339006653
 C       -10.2038328926        7.8638407153       -5.1638645486
 C        -9.2322809789        6.4331526734       -3.2495354832
 C       -13.3519627075        2.9947878253       -4.3090630781
 C       -11.2747521898        1.5543969402       -3.9783367911
 C       -15.8876021643       -3.5462157180       -4.8387874397
 C       -14.9064227585       -3.1686463274       -2.5664520077
 C        -8.9948269685       -5.4193492754       -6.5039310123
 C        -8.0317192151       -3.0836066265       -6.2679964559
 C       -13.8476210020       -4.6944149247      -12.0000674923
 C       -12.0611073709       -5.9855937174      -13.1509408609
 C       -10.1792062853        1.8026041470      -13.5150130998
 C        -8.4181867094        0.1705636291      -12.8969887222
 C        -5.5327633227        1.6483766889       -6.6799511780
 C        -5.9581731064        2.6181236583       -9.0071890231
 C        -1.0854493469       -3.4509411240       -9.3203480946
 C         0.4283723224       -2.0561822443       -7.7122899433
 C         4.8584320389        1.4390759992      -12.4135728918
 C         4.3475917540       -0.5850190140      -13.7180751362
 C         7.9704502485       -4.0609154123      -11.5472296207
 C        10.1373313628       -4.1879027941      -12.5775558510
 C         6.6783341484       -2.7878886332      -18.0794657767
 C         7.6932924052       -4.9304555056      -18.9078609989
 C        13.8441424694       -6.1205551832      -15.2893405195
 C        13.0908940167       -6.4887772933      -17.7014063645
 H        11.7913114824       -8.8703951654      -16.0825640573
 H        10.9884847805       -8.0287616437      -17.4182766523
 H        10.1208747533       -8.5453255677      -15.8019177541
 H        12.5061490954       -3.9832700744      -18.4676044668
 H        11.6580961668       -2.6222487702      -17.6114172972
 H        10.0213599375       -4.9249410464      -17.0861517097
 H        10.1333308233       -4.8985852579      -18.7756994480
 H         5.5124739808       -4.9452090120      -15.6538953126
 H         6.1515432988       -3.2702764899      -15.8049706461
 H         6.9915242405       -5.4459361530      -13.7446811316
 H         6.0772743262       -3.9054173319      -13.5519819024
 H         9.4377178701       -0.7373676195      -10.7000898978
 H         8.4051420549       -2.0472068452      -10.3382535513
 H         7.7541812408        0.6749657696      -11.4158499523
 H         6.9491901195       -0.3546052590      -10.1494441174
 H         2.1610827799       -1.2995612215      -11.9833031503
 H         2.2071467723        0.3539088038      -11.7027455989
 H         1.4689338047        0.1793574327       -9.4088414863
 H         2.5029825194       -1.2974793874       -9.3035995793
 H        -3.2762987882       -1.5357338547       -8.6145840652
 H        -3.1097507545       -1.2926252107      -10.3226893279
 H        -3.9765045954        0.9215931880      -10.1610652368
 H        -3.1669704488        1.2959897531       -8.5974368761
 H        -8.5289084640       -0.8915895033       -8.9457248613
 H        -7.3818459906        0.0328415249      -10.1411884054
 H        -9.6931264877        1.9623352182       -9.0772959726
 H       -10.3025939881        0.3659941258       -9.6306766385
 H       -10.8976923502       -0.9625688022      -14.3061292903
 H       -12.2805922223        0.0174452581      -13.9253232184
 H       -13.4327101328       -2.1504008273      -13.6540770398
 H       -12.8073031011       -1.9001632419      -12.0279691002
 H       -12.6889670224       -3.5281176717       -9.6751379938
 H       -11.1623105164       -2.8547685488      -10.2376526427
 H       -10.3796636514       -5.2783546219       -8.8114464475
 H       -11.7854515700       -4.9032010532       -8.0899560529
 H       -10.2956187809       -4.9350413014       -3.5499676700
 H       -11.4015811441       -5.1602139940       -4.9263494916
 H       -11.7984083603       -2.6084631482       -3.5446603009
 H       -12.3617884268       -4.2683660099       -2.7126332353
 H       -16.2496183841       -0.4694381310       -5.2707959304
 H       -15.2138707730       -1.5440672694       -6.2335263155
 H       -14.9302960070        1.5376115072       -5.4769586547
 H       -14.4689841701        0.8465479932       -6.9509608295
 H       -12.7623167294        4.4878560631       -6.3868270001
 H       -12.1021096600        3.7493865938       -7.8959316183
 H       -10.7408276440        5.7969624670       -7.2266028334
 H        -9.7786173007        4.4876649406       -7.1186065952
 H        -6.3873275289        7.5209821178       -5.8896770588
 H        -6.4804801679        7.0865467142       -4.0455558579
 H        -7.4168331762        8.3315851860       -4.8044007116
 H       -11.1911963851        7.8441036750       -4.6058479667
 H       -10.2447041335        7.9044223594       -6.2827789321
 H        -9.5842564484        8.6772726555       -4.8888416442
 H       -10.0790079762        6.8853145737       -2.8191738083
 H        -8.4290856692        7.1129369933       -2.8820935715
 H        -9.0235546659        5.4154740801       -2.9886485941
 H       -12.8586674072        3.8626449929       -3.9045654975
 H       -13.9456210665        2.3850103078       -3.5980140092
 H       -14.0342959026        3.2358074216       -5.0982769654
 H       -10.9345889865        2.4932014432       -3.5155528540
 H       -10.4488517622        1.0036960537       -4.3969499291
 H       -11.6946606435        0.8955697190       -3.2064399642
 H       -16.5603123240       -2.7445153271       -4.9047104032
 H       -16.4499439182       -4.4289520930       -4.5114221371
 H       -15.6288435469       -3.8223391560       -5.8240176810
 H       -15.2060347839       -4.1384633831       -2.3982828949
 H       -15.7457828915       -2.6063508474       -2.2548584988
 H       -14.0572622350       -3.0674162849       -1.9332093208
 H        -8.3907036874       -5.6852303766       -7.3319035512
 H        -9.8094411421       -6.1070851737       -6.6219117216
 H        -8.4107498884       -5.6965709174       -5.6645431963
 H        -7.4880526896       -3.3616281535       -5.3578175123
 H        -8.2389273031       -2.0027861093       -6.3147907527
 H        -7.3660307729       -3.1859482072       -7.1782591925
 H       -14.2369046692       -3.9112701751      -11.3007048631
 H       -14.3003289375       -5.7307671361      -11.8173665641
 H       -14.2704262758       -4.5545569127      -12.9753028850
 H       -12.6221172071       -5.7264998593      -14.0921102248
 H       -12.4668678786       -6.9750094885      -12.7880376494
 H       -11.0211708715       -6.1889412829      -13.4304363127
 H       -10.2557942617        1.3466838521      -14.4987810619
 H        -9.5066887163        2.6422173806      -13.5501944904
 H       -11.1807708815        2.0812981772      -13.3644002494
 H        -8.5256600583       -0.6184693111      -13.6953986453
 H        -7.8941748198       -0.3260026367      -12.1323716551
 H        -7.7267706021        0.9614804847      -13.2308114755
 H        -4.4545207955        1.8419237031       -6.7557470323
 H        -5.6286808478        0.8143024860       -6.0380910761
 H        -5.9295501627        2.5423763192       -6.2087244788
 H        -4.9230026744        2.9834221565       -9.0781475163
 H        -6.4945980260        3.5214547360       -8.6651138021
 H        -6.3618376878        2.5768729469      -10.0209994220
 H        -2.1517383941       -3.3505184570       -9.0399272158
 H        -0.6863577310       -4.3287107398       -8.8603927291
 H        -1.0675887159       -3.3711237641      -10.4027349308
 H         0.7734307205       -1.0758990469       -7.5531309881
 H         1.1734977412       -2.7906201068       -7.9085844936
 H        -0.1242161398       -2.3101464271       -6.8395787777
 H         5.3255409811        2.1289769811      -11.7081285331
 H         3.8288567172        1.6919975388      -12.5599081885
 H         5.2035419160        1.7617214166      -13.4269168811
 H         4.2704847723       -1.6431180581      -13.8752897992
 H         4.7785857050       -0.1735984978      -14.6128467391
 H         3.3168708950       -0.3056036941      -13.7009431505
 H         8.3782307662       -4.0181050497      -10.5777501248
 H         7.8398719678       -5.0865907762      -11.8577720008
 H         6.8683557347       -3.7207885370      -11.4219419347
 H        10.0561872690       -5.1406326247      -12.1669023259
 H        10.5937771935       -3.6929748787      -11.6892226012
 H        10.7127175117       -4.1730309724      -13.4872329614
 H         6.6221748460       -2.1941636484      -19.0092732041
 H         6.8604950964       -1.9929821735      -17.4431905271
 H         5.7431167345       -3.1443755706      -17.9522398345
 H         8.4092740624       -5.7531703984      -18.9129074316
 H         7.8213392085       -4.4897152752      -19.8992123369
 H         6.8070716894       -5.4840907882      -18.8350124336
 H        13.9918731684       -7.2057243801      -15.0955939734
 H        13.5677616755       -5.5986755792      -14.3236644516
 H        14.7678047021       -5.5254716862      -15.6217238229
 H        13.8143301313       -7.2972599556      -17.5626432419
 H        13.5330615402       -5.6328078339      -18.1866148532
 H        12.2255258846       -6.7629457464      -18.2392890589
 Na       -9.9949335974       -0.3295572789       -6.3561672892
 Na       10.5814974070       -1.9641594235      -15.0795945142
