232

 C        10.9287301568       -7.9335624387      -16.1985487122
 C        11.3294567524       -6.6250744399      -15.6721610783
 O        10.7419990309       -6.0733581381      -14.7805619523
 C        12.4906527005       -5.8139438843      -16.3864680654
 C        12.1166636658       -4.3873940057      -16.3687643301
 O        12.0765888743       -3.7602570248      -15.3058962124
 C        11.7305364908       -3.6684134887      -17.6500586601
 C        10.1945811993       -4.1695916834      -17.8505569127
 C         9.0735573373       -3.2041546283      -17.6619130603
 O         9.1948867193       -2.0177479726      -17.3712931073
 C         7.7149530130       -3.8998115383      -17.8239723150
 C         7.5373467391       -4.6936201016      -16.5009058830
 O         8.1500510550       -5.7444927900      -16.2863634091
 C         6.3499914974       -4.3659516255      -15.5938902235
 C         6.8726445581       -4.3858911750      -14.0973079261
 C         8.1391419501       -3.5825673157      -14.0443233626
 O         8.6936608760       -3.2390442000      -15.0924798300
 C         8.8846242070       -3.4515696153      -12.5440557876
 C         9.1229169741       -1.9234904573      -12.3405127769
 O         9.7912046141       -1.2914758005      -13.1578835679
 C         8.6433568520       -1.2744563605      -11.0132423895
 C         7.3465214522       -0.3487447298      -11.2050346181
 C         6.3147484107       -0.7393458044      -12.2671206958
 O         6.7180574442       -1.5273392958      -13.1049437940
 C         4.8432869885       -0.1274117221      -12.3202024750
 C         4.1085644779       -0.4681844916      -11.0763966221
 O         4.7109365579       -0.8678812301      -10.0766727946
 C         2.6322907479       -0.6281550157      -11.2293800376
 C         1.8158536110       -0.7311574507       -9.9689741598
 C         0.5258350842       -1.5746868739      -10.2373711044
 O         0.2081376181       -1.8370531260      -11.3561950906
 C        -0.3880914019       -1.9873977886       -9.0508757863
 C        -1.3911512546       -0.7398558648       -8.9570518130
 O        -0.7706317154        0.3136723063       -8.7629740957
 C        -2.8500831548       -0.8073818011       -9.3474472145
 C        -3.5823822554        0.4810645857       -9.0932779287
 C        -5.0768162106        0.2196132779       -8.6179853943
 O        -5.5610558991       -0.8789323639       -8.6422146548
 C        -5.9494132942        1.3814168023       -8.0719481516
 C        -7.4364676833        0.7373142433       -8.0347234757
 O        -8.0061669799        0.7008612431       -6.9632336563
 C        -8.0576256446        0.2281515797       -9.4075473949
 C        -9.2931179683        1.0510243699       -9.6753216779
 C        -9.6788388669        1.5827345082      -11.0818515547
 O       -10.1101525886        2.7543766778      -11.1285241091
 C        -9.6916359683        0.7265346560      -12.4119922458
 C       -10.6589185971       -0.5585843247      -12.2932058750
 O       -10.7349848002       -1.2109633922      -11.2852998351
 C       -11.6244660184       -0.8933745008      -13.4476317238
 C       -12.5872639808       -2.0785841210      -13.0269834742
 C       -11.7195329895       -3.3585175223      -13.0162487831
 O       -10.6879498485       -3.4103549367      -13.6230826690
 C       -12.3118131364       -4.7150174160      -12.4749801932
 C       -11.4556459410       -4.8110766237      -11.1079999370
 O       -10.4811925567       -5.5024220669      -11.1916616124
 C       -11.6839389376       -3.9289814056       -9.8070671915
 C       -11.0796069098       -4.3399709185       -8.5066277186
 C       -10.4853744391       -3.3405276529       -7.5529869571
 O       -10.7189680947       -2.1375379677       -7.7311968642
 C        -9.4160773723       -3.7714144282       -6.4534592867
 C       -10.1893421762       -3.3711898513       -5.1374969068
 O       -10.1543355002       -2.2359268224       -4.7667016670
 C       -10.9298690858       -4.3850177045       -4.2766258838
 C       -12.1618241565       -3.7720319804       -3.5484091262
 C       -13.3623902095       -3.7784235687       -4.5639853830
 O       -13.2236476737       -4.3667038409       -5.6208008384
 C       -14.7413151668       -2.9772035988       -4.1160010866
 C       -14.4452848782       -1.5002622885       -4.3645740542
 O       -13.7635237782       -0.8156941742       -3.6055855226
 C       -15.0924832237       -0.7759350570       -5.5713747403
 C       -14.5406294873        0.6273105673       -5.7255443708
 C       -12.9769574186        0.6985948057       -5.4472008720
 O       -12.2549799868       -0.2213858612       -5.7552281501
 C       -12.3699295771        1.9984377915       -4.8342019429
 C       -11.5951119472        2.5996099467       -6.1223849019
 O       -10.7690594626        1.9963978092       -6.7956028675
 C       -11.9736470113        4.0467807233       -6.6219022224
 C       -10.6955612534        4.8264298580       -6.6626356253
 C       -10.3139173533        5.3030034887       -5.2596475443
 O       -10.9828743130        4.7585460485       -4.3744367454
 C        -9.4386219759        6.4221434272       -4.7790186599
 C        -8.1132418835        6.5099672478       -5.6477502840
 O        -8.0842233722        6.0535549564       -6.7738907024
 C        -6.8605648141        7.2534882725       -5.0206460802
 C       -10.2244785734        7.7258636691       -5.2446008737
 C        -9.3195926998        6.4597354409       -3.1746216083
 C       -13.4982530073        3.0159294422       -4.3718282162
 C       -11.2485848185        1.5848408053       -3.7778082624
 C       -15.8586605325       -3.6188574820       -4.9148260637
 C       -14.9073924721       -3.1246942186       -2.5552330515
 C        -9.1839703512       -5.2452052625       -6.4849221216
 C        -8.0153180443       -3.0784734290       -6.4720949245
 C       -13.8288502080       -4.8519800487      -12.0981616803
 C       -11.8292545875       -5.9323484352      -13.2688102975
 C       -10.1027351895        1.7132057798      -13.5910306262
 C        -8.2266684847        0.0634265704      -12.7745756469
 C        -5.6478209644        1.6089513397       -6.6296949186
 C        -6.0703021606        2.5457204617       -8.9646065921
 C        -1.0089093367       -3.3175634674       -9.3733839544
 C         0.2629180357       -2.1105028721       -7.5788665964
 C         4.9172537628        1.4422225181      -12.4651732070
 C         4.3520645599       -0.7605667677      -13.6809829948
 C         7.9522986893       -4.1208691299      -11.4908898158
 C        10.2488146076       -4.1492955013      -12.6296703932
 C         6.6685094688       -2.7618439305      -17.9367290020
 C         7.6542934287       -4.9130560986      -19.0917476839
 C        13.6661847363       -6.0650599149      -15.3254041083
 C        12.9305346185       -6.4230616623      -17.7832892684
 H        11.6260245328       -8.7719052771      -16.2060013659
 H        10.6362368849       -7.8621386049      -17.2605662912
 H        10.1561485015       -8.3234341605      -15.5046922121
 H        12.2312459423       -4.1557471897      -18.4963467181
 H        11.8181449079       -2.5797294128      -17.7230427512
 H         9.9489329762       -5.1116748039      -17.2805942678
 H        10.0999022616       -4.5181939103      -18.8435485527
 H         5.5844710854       -5.1839496450      -15.6771314728
 H         6.0216286266       -3.3428178876      -15.7020214250
 H         7.2069401984       -5.3794385223      -13.7086257984
 H         6.1054381865       -3.9826550243      -13.3737810772
 H         9.5752619564       -0.7496988389      -10.5897071394
 H         8.4143499505       -2.1191236131      -10.3259414892
 H         7.7684870982        0.5708017957      -11.5222951336
 H         6.9404458029       -0.3179566578      -10.1938437741
 H         2.3496437515       -1.4579050753      -11.8872847669
 H         2.2734046951        0.2571567190      -11.8153547876
 H         1.4375640277        0.2131050262       -9.5408167967
 H         2.3554596617       -1.3067395039       -9.1819743194
 H        -3.4934063394       -1.5449359933       -8.8282131492
 H        -2.7402459441       -1.1589966741      -10.3649745083
 H        -3.6500020909        1.2781984189       -9.8828493536
 H        -3.1432002583        0.9807583699       -8.1862722542
 H        -8.1777907473       -0.9066180903       -9.2615361538
 H        -7.2864380593        0.3860399610      -10.1502773564
 H        -9.4170177379        1.9266775608       -8.9595724489
 H       -10.1563342105        0.4167165017       -9.3848618105
 H       -11.0246632524       -1.1778658535      -14.3517746906
 H       -12.1770927295       -0.0229158259      -13.7854400113
 H       -13.3130244287       -2.2996923940      -13.8678082494
 H       -13.1715966021       -1.8906451424      -12.1358629203
 H       -12.7703335093       -3.6331362959       -9.6514206631
 H       -11.2100898979       -3.0146411547      -10.1662699015
 H       -10.2742588813       -5.0488136714       -8.6306379247
 H       -11.8029952948       -5.0365314799       -8.0197496870
 H       -10.1933561158       -4.7059170490       -3.4908633351
 H       -11.3372640550       -5.2765264072       -4.7541884660
 H       -11.9203857838       -2.7474945916       -3.3714848795
 H       -12.2194687073       -4.4353690846       -2.6411084623
 H       -16.1580591571       -0.6243302875       -5.3246049946
 H       -15.0786762381       -1.4847409856       -6.3640427572
 H       -15.0946159288        1.3478644979       -5.1395122624
 H       -14.7225644021        0.9618187736       -6.7627984325
 H       -12.7006012679        4.5215324129       -5.9628974629
 H       -12.4667169954        3.8488415501       -7.6777700591
 H       -10.7523813865        5.6611548934       -7.3679667028
 H        -9.8886808284        4.2333549926       -7.1064478707
 H        -6.0069381493        7.1940217437       -5.7496137515
 H        -6.7083165045        6.8747650319       -3.9959230049
 H        -7.0655852246        8.2993345340       -4.8386100092
 H       -11.1092484773        7.7424170006       -4.5938748764
 H       -10.4176383051        7.6370468785       -6.2767827361
 H        -9.5570084672        8.6184319589       -5.1904842838
 H       -10.2676236041        6.6907017289       -2.7190542077
 H        -8.7177916718        7.2709100264       -2.9111730109
 H        -8.8265210719        5.5588233824       -2.9013441660
 H       -12.9822532174        3.8684599625       -4.0685055462
 H       -14.0372232289        2.5014466685       -3.6272622296
 H       -14.1812117345        3.2823679557       -5.1651885435
 H       -10.7072904878        2.5061248998       -3.3648424997
 H       -10.5290424056        1.0439939360       -4.4038182322
 H       -11.5313915478        0.8693864737       -3.0137844730
 H       -16.6123487326       -2.9324246954       -5.2443942164
 H       -16.4107642443       -4.4251175378       -4.4849515300
 H       -15.3757309860       -4.0449745925       -5.8009947150
 H       -15.3139379856       -4.1205172657       -2.3076839220
 H       -15.5200590057       -2.4299503813       -2.0372389250
 H       -13.9096641808       -3.1639983930       -2.1301098532
 H        -8.7247104472       -5.6174739105       -7.3368476364
 H       -10.1050482652       -5.9062335992       -6.4963729829
 H        -8.5634046746       -5.5147987408       -5.6632506466
 H        -7.5353551951       -3.3077843668       -5.5952469394
 H        -8.0712534358       -2.0000931017       -6.5934765791
 H        -7.3289190213       -3.3973885314       -7.3128883947
 H       -14.0549324100       -4.4699791420      -11.0574096155
 H       -14.1291501934       -5.9146138589      -12.2320060738
 H       -14.5448673383       -4.4074001322      -12.8393859190
 H       -12.0758650231       -5.8187164989      -14.2928885520
 H       -12.2880123296       -6.8736933956      -12.9023698959
 H       -10.7170890591       -6.0813859294      -13.2712178522
 H        -9.9281845771        1.2252127161      -14.5430455475
 H        -9.6456026104        2.6582206664      -13.5562953527
 H       -11.1832930392        1.7667653447      -13.7119838137
 H        -8.2925134693       -0.9609677523      -13.1953935901
 H        -7.7011074102       -0.0944568219      -11.8795683358
 H        -7.5562364318        0.6499794294      -13.3636469695
 H        -4.8545525590        2.3084494625       -6.5055486990
 H        -5.2932980211        0.6868072760       -6.2545362096
 H        -6.4622601358        1.9504223837       -6.0167347389
 H        -5.1054486604        3.1048910433       -9.0823814418
 H        -6.7287517171        3.3232396141       -8.7056081531
 H        -6.4885504707        2.3098383676       -9.9502874505
 H        -1.9706932987       -3.3586952377       -8.9973295720
 H        -0.4429427430       -4.0784041237       -8.8133187990
 H        -0.9799189307       -3.4525186350      -10.4339746958
 H         0.0523421315       -1.1677224411       -7.0968638268
 H         1.3313720425       -2.3289266393       -7.7066571576
 H        -0.1796153122       -2.9186669190       -6.9841706359
 H         5.5698878282        1.9628858383      -11.8136503041
 H         3.8759069712        1.9630054281      -12.5077915591
 H         5.2592386419        1.6823635180      -13.4202024383
 H         4.1556895204       -1.8445465996      -13.5787878845
 H         5.1500687819       -0.6315246338      -14.3911473817
 H         3.4645200934       -0.4170177629      -14.1559101230
 H         8.3211687041       -4.0963367980      -10.4675744974
 H         7.5884471806       -5.1312060398      -11.7838204400
 H         7.0891511629       -3.5791705031      -11.4128663294
 H        10.2392092517       -5.1434410060      -12.2492946912
 H        10.8300397826       -3.6449769244      -11.8544332737
 H        10.6915117525       -4.0639280963      -13.6497166731
 H         6.6889009325       -2.2292812795      -18.8537490019
 H         6.8135081921       -1.9067319201      -17.2872025577
 H         5.5952035959       -3.1130782579      -17.8950218481
 H         8.4724007347       -5.6257782116      -19.1475174656
 H         7.8237903370       -4.3286702719      -19.9342326451
 H         6.8257638914       -5.6542452793      -19.1818034801
 H        14.0744969479       -7.0925847528      -15.4235420400
 H        13.4949712388       -5.7407839714      -14.2370394735
 H        14.3646775563       -5.2465757036      -15.6945284058
 H        13.4965093366       -7.3604790489      -17.6560299779
 H        13.4620058548       -5.6483165113      -18.2955256786
 H        11.9350897057       -6.5213958061      -18.2798513673
 Na       -9.9554582734       -0.3608005668       -6.3669735228
 Na       10.4159160320       -1.9006572671      -15.2084894601
