232

 C        10.4337603721       -7.4703811703      -16.5866125964
 C        11.1554744896       -6.3259043893      -15.8715133996
 O        10.9355584419       -6.0973034472      -14.7298469372
 C        12.2097406701       -5.4919452345      -16.7120564618
 C        11.7635671482       -4.0671361600      -16.9703586676
 O        11.9723972180       -3.2386594136      -16.0963323466
 C        11.0098277168       -3.5762046413      -18.2868631044
 C         9.4660596352       -3.9247492864      -18.5103358533
 C         8.5183972005       -3.0482472039      -17.7202003274
 O         8.8084923884       -1.9415839541      -17.3016364190
 C         7.0483350556       -3.5874173960      -17.7177125387
 C         7.1611040642       -4.7883952089      -16.6655895069
 O         7.6970483041       -5.7991203181      -17.0456779830
 C         6.6221818788       -4.8030618837      -15.2382798357
 C         7.5918573576       -5.0582992855      -14.0412196659
 C         8.6268299226       -3.8869330061      -13.8979595914
 O         9.0511628408       -3.3476738497      -14.9362776729
 C         9.1413691618       -3.5062639721      -12.4512655723
 C         9.0587588255       -1.9194288301      -12.5430526829
 O         9.5401933405       -1.3004419186      -13.4842168644
 C         8.4478555713       -1.2092637716      -11.3357679167
 C         7.4900747057       -0.1208512623      -11.7640729604
 C         6.2659989231       -0.8006392690      -12.4886116094
 O         6.3108904152       -1.9266557448      -12.9482950507
 C         4.8990289228       -0.0561682899      -12.6352014260
 C         4.1662813540       -0.5378612461      -11.3254245832
 O         4.7725889906       -0.8184612279      -10.3475284460
 C         2.6265241194       -0.2683821828      -11.2916574868
 C         2.0338617778       -0.7305264560       -9.9765071618
 C         0.8035146637       -1.6487174248      -10.1475005577
 O         0.5730712562       -2.2622288580      -11.1748275613
 C        -0.2704308285       -1.8203454142       -8.8037184077
 C        -1.0081879218       -0.4272091213       -8.6008572922
 O        -0.2989087917        0.5116866468       -8.6834040168
 C        -2.4873352272       -0.3484747832       -8.6810886762
 C        -3.2483198553        0.8589567676       -8.1286141022
 C        -4.6827909333        0.4561383819       -7.9192868496
 O        -5.0456459926       -0.6445004136       -8.2474344050
 C        -5.7688596960        1.4052083920       -7.2948138140
 C        -7.2186877283        0.7635059856       -7.7037636875
 O        -8.1456592495        0.6404254799       -6.8704575025
 C        -7.4821891194        0.2596629858       -9.2143517625
 C        -8.9555529614        0.5192252417       -9.6645257657
 C        -8.9980517840        1.0198746359      -11.1108892473
 O        -9.0403052793        2.1655279415      -11.4134189085
 C        -9.2194957750       -0.0548909852      -12.2266396375
 C       -10.5742816872       -0.8230523697      -11.8888608838
 O       -10.6101956020       -1.5217573062      -10.8977901774
 C       -11.8448948339       -0.7718407304      -12.7535759203
 C       -12.5871371040       -2.1313822214      -12.3783608821
 C       -11.7920662337       -3.2860872230      -12.9977891723
 O       -10.8647098770       -3.0091584572      -13.7550859477
 C       -12.0196626797       -4.7703995129      -12.4306017413
 C       -11.4673443250       -4.8258096924      -10.8859646713
 O       -10.5546028488       -5.5444644831      -10.6088563952
 C       -12.2597080226       -4.0335721107       -9.7678707489
 C       -11.7303600366       -4.4877411326       -8.3894891613
 C       -10.7624577314       -3.4418637555       -7.7847041599
 O       -11.0178228300       -2.3189634220       -8.2907173319
 C        -9.8151947693       -3.7766504097       -6.6650227323
 C       -10.2155695481       -2.9739434525       -5.3293856954
 O       -10.3502860380       -1.7501732726       -5.3356633514
 C       -10.3608770130       -3.5696252581       -3.9455535184
 C       -11.8202656757       -3.4248525728       -3.3130144221
 C       -12.8874615297       -3.7469587104       -4.3849408851
 O       -12.5138973034       -4.0650729915       -5.5034713184
 C       -14.4255644639       -3.5220685529       -4.1713092609
 C       -14.6492937257       -2.0024893765       -3.8664148131
 O       -14.5903678164       -1.5680463742       -2.7138747114
 C       -14.9473465765       -1.1766409794       -5.0737736005
 C       -14.8493701581        0.3682803778       -4.8587194785
 C       -13.5268213265        0.7554818955       -5.5056962718
 O       -13.1123068073        0.1681759806       -6.4898678553
 C       -12.8313753597        2.0770586969       -4.9809238812
 C       -11.9257635457        2.7972928368       -6.1173240978
 O       -11.0002192571        2.1629097504       -6.5763741612
 C       -12.1700360998        4.2903671304       -6.4997036536
 C       -10.9125109195        5.1057806700       -6.6424998594
 C       -10.2882624328        5.4511800459       -5.3248031629
 O       -10.6749109621        5.0022441830       -4.2461556914
 C        -9.2672015782        6.5938728426       -5.2598024100
 C        -7.8886043031        5.9639100171       -5.7826173939
 O        -7.7924210333        5.3780123636       -6.8421851796
 C        -6.5710858157        6.1646502333       -4.9553246066
 C        -9.5115148037        7.7435656165       -6.2282223422
 C        -9.1563067805        7.1598842979       -3.7969534473
 C       -13.8239736940        3.1249236278       -4.1568600076
 C       -11.7963836900        1.6897580116       -3.7563112045
 C       -15.1894550050       -3.9601319266       -5.4071405858
 C       -14.9598262783       -4.3952641744       -2.9731556358
 C        -9.7057268589       -5.3151875983       -6.4547481269
 C        -8.4938816768       -3.2689388020       -7.0932423841
 C       -13.5661651381       -5.1399570670      -12.6228138204
 C       -11.0208138271       -5.6434589144      -13.2510183957
 C        -9.3570982374        0.7334990733      -13.6162038125
 C        -8.0541306881       -1.0617507555      -12.4303408524
 C        -5.5712479815        1.4366726962       -5.7870994074
 C        -5.7514112496        2.8844715878       -7.7070798060
 C        -1.2755567696       -3.0004151959       -9.3101749130
 C         0.4921800811       -2.1813072715       -7.5441566375
 C         5.1102079515        1.4591929329      -12.6918564226
 C         4.1040019029       -0.4538270393      -13.9410485830
 C         8.4846955812       -4.3736084348      -11.4036402698
 C        10.6833838762       -3.7180531346      -12.4450680248
 C         6.1266739250       -2.3786383037      -17.2705570365
 C         6.4623680079       -4.2055675036      -19.0099486420
 C        13.4314436344       -5.4890462407      -15.7734470141
 C        12.5705956527       -6.3303254883      -17.9998954228
 H        11.0918963186       -8.4033464383      -16.7623545875
 H         9.9813887772       -7.3160881673      -17.5926460676
 H         9.4739544362       -7.7830475022      -16.0869961894
 H        11.5411129196       -3.8920879827      -19.2033934147
 H        11.0115894683       -2.4943567509      -18.4593857139
 H         9.2667123093       -4.9677859496      -18.3639842715
 H         9.3310776047       -3.5869022203      -19.5308764592
 H         5.8182758801       -5.5185856171      -15.1768610955
 H         6.0018463605       -3.8907246203      -15.0529824800
 H         8.3122688539       -5.9205189690      -14.0725332913
 H         7.0470037668       -5.2048799415      -13.2450273105
 H         9.2617943608       -0.7775528996      -10.6913065721
 H         7.9462931888       -1.9955810123      -10.6867478460
 H         8.0320779799        0.4572850304      -12.5313848512
 H         7.1978108275        0.4434581781      -10.8985979033
 H         2.1770836730       -0.8498934983      -12.0325627750
 H         2.5125253698        0.8302901892      -11.5374278298
 H         1.8961295272        0.1692081806       -9.4093197525
 H         2.7952808225       -1.2539470779       -9.3367710079
 H        -2.8312584887       -1.2857856136       -8.3301383398
 H        -2.6231784371       -0.3260481437       -9.7911276095
 H        -3.1108945909        1.5694877393       -8.9651697834
 H        -2.7267118756        1.2820253982       -7.1830747809
 H        -7.2568462503       -0.8545167308       -9.2392024304
 H        -6.7418247601        0.7698190775       -9.9603332989
 H        -9.1819324895        1.3336898070       -8.8913142567
 H        -9.6698214706       -0.3704311984       -9.6140696550
 H       -11.7531429290       -0.6906451509      -13.8370483662
 H       -12.5944673845       -0.0120735064      -12.4520085240
 H       -13.5466468263       -2.0758283332      -12.8175121042
 H       -12.7923439749       -2.3213062536      -11.2794943149
 H       -13.3269837318       -4.2044198205       -9.8477873955
 H       -12.0036796819       -2.9413521939       -9.8331962856
 H       -11.2234142636       -5.4260944303       -8.4409849788
 H       -12.6078994733       -4.5704862469       -7.7771376087
 H        -9.6270383750       -3.0535969549       -3.3106601705
 H       -10.1965682048       -4.6721770307       -3.8432936602
 H       -12.0029867832       -2.4521253483       -2.7824153016
 H       -11.7780031944       -4.0650991133       -2.4633832295
 H       -15.9398617493       -1.3706298089       -5.4356852453
 H       -14.3485663899       -1.4007125089       -5.9873662888
 H       -14.8071927493        0.5198360491       -3.8153593869
 H       -15.6636917027        0.9961267375       -5.2278338710
 H       -12.9428576434        4.7594794689       -5.7549800961
 H       -12.7808736410        4.2222034377       -7.4466757180
 H       -11.1651275223        6.0146983578       -7.0867662398
 H       -10.2573212988        4.5672505394       -7.2957246595
 H        -5.9011550639        5.3829424391       -5.2502614333
 H        -6.7205050845        6.0321134101       -3.8687363184
 H        -6.0952478823        7.1514557672       -5.1580585760
 H       -10.5766546301        8.0054523996       -6.2828320128
 H        -9.3036076623        7.3163846964       -7.2578623963
 H        -9.0079436483        8.6079503322       -5.8942438845
 H       -10.1059070424        7.1923059741       -3.3513212055
 H        -8.4856310532        8.0144533851       -3.8992219801
 H        -8.7666655352        6.3832088592       -3.2005500895
 H       -13.1515675051        3.8950059728       -3.7235119311
 H       -14.2353340710        2.6520575262       -3.2347261322
 H       -14.6074863957        3.5304401044       -4.7717118019
 H       -11.4548846150        2.5869309778       -3.3427682510
 H       -10.9710184228        1.0226279802       -3.9819755453
 H       -12.4073674230        1.1996775648       -2.9960116410
 H       -16.2458100679       -3.7723497333       -5.1898094651
 H       -14.9759041926       -5.0184255374       -5.5739592094
 H       -14.9333247435       -3.4166650776       -6.2900838371
 H       -14.4767077782       -5.3114424775       -3.0895397274
 H       -16.0275265165       -4.5934034834       -3.1292859166
 H       -14.8219784049       -3.9986945874       -1.9811122324
 H        -9.5391310853       -5.9095184086       -7.3609446161
 H       -10.5538276324       -5.6752599089       -5.9582706616
 H        -8.9098141078       -5.5880309646       -5.7863748962
 H        -7.7344816575       -3.3951381926       -6.2611497768
 H        -8.4924926355       -2.1838268062       -7.2740509188
 H        -8.1826849456       -3.8012035258       -8.0152025264
 H       -14.2709491311       -4.9441041978      -11.8270019781
 H       -13.5983470864       -6.2358595715      -12.7956650937
 H       -14.0080546842       -4.6859446907      -13.4920395864
 H       -11.4514534560       -5.9161225654      -14.2928558686
 H       -10.8752416555       -6.6101730914      -12.7370093939
 H       -10.0267577043       -5.1726594501      -13.3211523221
 H        -9.5851704448        0.0272497917      -14.3722935556
 H        -8.4803625673        1.2338949775      -14.0705052929
 H       -10.0760432423        1.5025875424      -13.4660488537
 H        -7.1035151071       -0.5520050162      -12.1613070432
 H        -8.0760344430       -1.2793395453      -13.4689816463
 H        -8.1197307413       -1.9957342276      -11.8256760178
 H        -4.5419249648        1.0264736046       -5.6247247517
 H        -6.2962676844        0.8100411188       -5.2050229558
 H        -5.5751510355        2.4360472024       -5.3347507538
 H        -4.7537287574        3.2135403586       -7.7739415394
 H        -6.2887517031        3.5289354999       -6.9908624349
 H        -6.0035235725        3.1059235756       -8.7298755497
 H        -1.7932343526       -3.3330114481       -8.3352505078
 H        -0.6435208267       -3.7347335038       -9.7452097605
 H        -2.0491943126       -2.7405389007      -10.0694396573
 H         0.1776079294       -3.1653520319       -7.2554145173
 H         0.1043528084       -1.5670845875       -6.7552729046
 H         1.5453785701       -2.1956942285       -7.6812423623
 H         5.4869289774        1.8388620815      -11.7305528734
 H         4.1922931134        1.9547985295      -12.7489239459
 H         5.7978491620        1.8119192118      -13.5136642553
 H         3.7296363189       -1.4504166536      -13.8443492536
 H         4.5935995450       -0.4009289510      -14.9193063666
 H         3.2188750015        0.2259843263      -13.8799831273
 H         8.9759114848       -4.2939980043      -10.4263443303
 H         8.5707978605       -5.3961250656      -11.6869140050
 H         7.3620298009       -4.0822209568      -11.2121444928
 H        10.9847854857       -4.7095865843      -12.8276145916
 H        11.0221395315       -3.4425585599      -11.4508538100
 H        11.1474022099       -2.9612135786      -13.0469939275
 H         6.2320860334       -1.5071853660      -17.9585459155
 H         6.3342674158       -2.0673580958      -16.2914741167
 H         5.1560489661       -2.6582837497      -17.1474238999
 H         6.7686631078       -5.2280830796      -19.1398400034
 H         6.7728816152       -3.6843640484      -19.9857004172
 H         5.4306064491       -4.0214363044      -19.0135902918
 H        13.9635692228       -6.4053293611      -15.5888639293
 H        13.0291421774       -5.0680042308      -14.8479676815
 H        14.1887213158       -4.8673257983      -16.2751780393
 H        12.3632978246       -7.3769932260      -17.8151659879
 H        13.6173141570       -6.2739627755      -18.3350967722
 H        11.9398938899       -6.0248820264      -18.7685795816
 Na      -10.5536806476       -0.1181226696       -6.9491719804
 Na       10.4523685365       -1.4883325674      -15.5997823452
