232

 C        10.3022207479       -7.4289871369      -16.7007608056
 C        11.1080452125       -6.4012147831      -15.9804154307
 O        11.0671042465       -6.2097406047      -14.7433647164
 C        12.1458695550       -5.5270549721      -16.7775045067
 C        11.6283357600       -4.0300550516      -16.9868418867
 O        11.9019831885       -3.2180323651      -16.1329026765
 C        10.9920024300       -3.5127560807      -18.3085927438
 C         9.5224234715       -4.0390493578      -18.5369202838
 C         8.4395142303       -3.0554864558      -17.8927662427
 O         8.8570903303       -2.0198872922      -17.3319929251
 C         6.9872614238       -3.5642922190      -17.6016440584
 C         7.1958709041       -4.7713006457      -16.5781633793
 O         7.6861980165       -5.7714622935      -17.0300348904
 C         6.5662338461       -4.7322266308      -15.1720648169
 C         7.5934742606       -5.0356377419      -14.0890946890
 C         8.6809934497       -3.9263185352      -13.9549480090
 O         8.9091896644       -3.3121748443      -14.9842312481
 C         9.2566776093       -3.5428810025      -12.6055537435
 C         9.0502718588       -1.9290895877      -12.5529555461
 O         9.4658386568       -1.1164320675      -13.3785718102
 C         8.3995816608       -1.2245120248      -11.2869529106
 C         7.3232524456       -0.1468684981      -11.7746129544
 C         6.2781686197       -0.8198494666      -12.6599762351
 O         6.4707000719       -1.9504398893      -12.9986538763
 C         4.8366342546       -0.0002382103      -12.6562784748
 C         4.0950458543       -0.3873265868      -11.3748630588
 O         4.7192993239       -0.7577569499      -10.3665841605
 C         2.5663675004       -0.1927870244      -11.3333289855
 C         1.9475258549       -0.7438885398       -9.9762120641
 C         0.7508134055       -1.6966461311      -10.0735463027
 O         0.5197552727       -2.2341335912      -11.1279418431
 C        -0.1396504765       -1.7692895570       -8.8809051330
 C        -0.9422047684       -0.3464518522       -8.7299518622
 O        -0.3378569230        0.6822639803       -8.5005018664
 C        -2.4830082879       -0.4341305182       -8.6189253425
 C        -3.2294466484        0.8171059635       -8.0819615521
 C        -4.7188560601        0.3961808963       -7.8712446002
 O        -5.0311945838       -0.7170327052       -8.1428701748
 C        -5.7776843690        1.3548331691       -7.2486981278
 C        -7.2316132674        0.7620634049       -7.7049231556
 O        -8.1414990390        0.5726052098       -6.9201293046
 C        -7.4390979759        0.4224510866       -9.1601552221
 C        -8.8928312754        0.4599576225       -9.6850721149
 C        -9.0205701884        0.9661505146      -11.1865952011
 O        -8.9666720619        2.1887668174      -11.4343661870
 C        -9.2559315410       -0.1565697662      -12.2890474227
 C       -10.5651466505       -0.8620234527      -11.8215896748
 O       -10.5127010795       -1.4758602389      -10.7975180387
 C       -11.9052966598       -0.7099440606      -12.5852375321
 C       -12.6277674400       -2.1090534348      -12.4675609704
 C       -11.6970297699       -3.2972069248      -12.9504217484
 O       -10.8746395011       -3.1048470391      -13.8177897197
 C       -11.9244591616       -4.7507504689      -12.4053201157
 C       -11.4757270041       -4.9124291850      -10.8653611343
 O       -10.5051742015       -5.5389061768      -10.4567314346
 C       -12.3106756325       -4.1914355268       -9.7753916719
 C       -11.7858607472       -4.4970537959       -8.3544459576
 C       -10.8896565396       -3.2610519938       -7.8041009685
 O       -10.8799927019       -2.1541562635       -8.2750571211
 C        -9.8680803051       -3.7006621681       -6.6326566610
 C       -10.2405557761       -2.9123849296       -5.3887052140
 O       -10.2848928475       -1.6384080469       -5.4487883596
 C       -10.4019409172       -3.6385559467       -3.9858473079
 C       -11.7673879649       -3.3995700722       -3.3899967605
 C       -12.8318086985       -3.7741606115       -4.3893484633
 O       -12.4912562814       -4.1061780461       -5.5395520141
 C       -14.3941008932       -3.6598249737       -4.0926143410
 C       -14.6625031544       -2.0645443730       -3.7851121687
 O       -14.6544992434       -1.5772601105       -2.6703778246
 C       -15.0269716523       -1.2278371724       -4.9814897418
 C       -14.8675310674        0.2833628105       -4.8684741653
 C       -13.5757159464        1.0212447507       -5.4630856366
 O       -13.0960171866        0.5184307246       -6.4450738421
 C       -12.7740563114        2.2255403434       -4.8637254566
 C       -11.9400695210        2.8526628608       -5.9971076464
 O       -11.1754870735        2.2658212516       -6.7026629577
 C       -12.2213611574        4.2545250726       -6.4916822912
 C       -10.8513129439        4.9613460980       -6.6644306653
 C       -10.2619583727        5.4128147474       -5.3138933426
 O       -10.7338176357        4.8849140931       -4.2993503835
 C        -9.1446710614        6.5120696260       -5.3136693372
 C        -7.8501908933        5.8536688663       -5.7645833156
 O        -7.8550158852        5.2762867599       -6.8611988192
 C        -6.6024128447        6.1311834548       -4.8804391105
 C        -9.4394111760        7.6029627481       -6.3876212850
 C        -9.1507121153        7.1741547518       -3.9298388537
 C       -13.7588330196        3.1923282401       -4.1805183623
 C       -11.7945707654        1.6339223210       -3.7941927547
 C       -15.0977564731       -4.0865636270       -5.4426070281
 C       -14.9570068297       -4.5790930897       -2.9460248670
 C        -9.8024984108       -5.1838371799       -6.3407636544
 C        -8.3756428502       -3.2171814930       -7.0747291127
 C       -13.4102705934       -4.9988402565      -12.7474484919
 C       -11.1458087256       -5.7061676399      -13.2840669968
 C        -9.2809117611        0.7075360647      -13.5740976154
 C        -8.1635691714       -1.2205862123      -12.4241627448
 C        -5.5660509561        1.2464381420       -5.6203887853
 C        -5.5447807439        2.8359063932       -7.7105520854
 C        -1.2576268836       -2.8198978336       -9.2257058077
 C         0.5951281442       -2.1943109890       -7.5454199660
 C         5.0246828633        1.4980483102      -12.6107239956
 C         4.0239671280       -0.4289309976      -13.9151257540
 C         8.6380113259       -4.3342881236      -11.4236951657
 C        10.8165961977       -3.7837503294      -12.5220076370
 C         6.0622711587       -2.3503838014      -17.0417518940
 C         6.4725249776       -4.0880516922      -18.9070888391
 C        13.4603080181       -5.4308268954      -15.9105019496
 C        12.6543783733       -6.2201296441      -18.1819840785
 H        10.8960251795       -8.3509048240      -16.8838390090
 H         9.9611945849       -7.1617549937      -17.7036897696
 H         9.2899889287       -7.7201827047      -16.3188174195
 H        11.5819755078       -3.7999353162      -19.1711558279
 H        10.9223070347       -2.4304643909      -18.4538526313
 H         9.4128697449       -4.9137512465      -17.9960917672
 H         9.5398817601       -4.1675038313      -19.6492010464
 H         5.7734408362       -5.5336267868      -15.0469867601
 H         5.8441643232       -3.8678728260      -14.9765893057
 H         8.1157101791       -5.9519458019      -14.1953914300
 H         7.1043520328       -5.1719369737      -13.0703988705
 H         9.1683645783       -0.6776773729      -10.6714132486
 H         7.9325832397       -1.9536419165      -10.5504550619
 H         7.8108640791        0.6462329189      -12.3698745464
 H         6.8144461383        0.2847231126      -10.9268940812
 H         2.1602567346       -0.8469770292      -12.1389800393
 H         2.3437455705        0.8612481146      -11.5090859047
 H         1.6949729966        0.2393579098       -9.4805381698
 H         2.6839835852       -1.1274001644       -9.2450612825
 H        -2.5714024358       -1.2065629668       -7.8150024255
 H        -2.9162421690       -0.8225316707       -9.5720917820
 H        -3.0755926887        1.6927521499       -8.7466934847
 H        -2.7440747509        1.0108569889       -7.1315665104
 H        -7.0991619124       -0.6182495212       -9.2021255249
 H        -6.8245442414        0.9689944866       -9.7775159488
 H        -9.3833152524        1.1821142189       -8.9878008697
 H        -9.3577030566       -0.4796399732       -9.6226320153
 H       -11.7501380183       -0.4671735643      -13.6326589667
 H       -12.6245346087        0.0292389944      -12.1764675415
 H       -13.6027960997       -2.1243089539      -13.0135456819
 H       -12.8849431696       -2.3170476802      -11.4221106362
 H       -13.3500428575       -4.4707346833       -9.8431737194
 H       -12.1765624114       -3.0942457638       -9.8668510302
 H       -11.0612708881       -5.3611912602       -8.3299082391
 H       -12.6724416627       -4.6962420299       -7.7704452437
 H        -9.6992797970       -3.2337424064       -3.1828937036
 H       -10.2353208796       -4.7019069718       -4.0134175207
 H       -11.8093822506       -2.4000811725       -3.0079749360
 H       -11.8377376230       -3.8731727991       -2.4513950044
 H       -16.0164454093       -1.3865879743       -5.3582466097
 H       -14.4316737427       -1.4116341608       -5.8473045724
 H       -15.0453723023        0.5674592900       -3.8147021028
 H       -15.6591205296        0.7488992298       -5.4311258623
 H       -12.7969493595        4.8326454460       -5.7524883406
 H       -12.9265542331        4.1444531424       -7.3357270889
 H       -10.9714632061        5.8142474655       -7.3635289925
 H       -10.1326058770        4.2232518374       -7.0860215449
 H        -5.9806238819        5.2316366230       -4.7399313201
 H        -6.8101655885        6.4732686865       -3.8269062720
 H        -6.0332217847        6.8635255436       -5.4153667424
 H       -10.5365361395        7.9056757703       -6.4011503563
 H        -9.2928106067        7.1023425991       -7.3390001168
 H        -8.8848408858        8.4999907827       -6.1779350715
 H       -10.1461668069        7.0064329995       -3.6408474527
 H        -8.8144788279        8.1909060166       -4.0268802221
 H        -8.7030922940        6.5904361332       -3.1709653437
 H       -13.2039942944        3.9161036779       -3.6962599078
 H       -14.3930562467        2.7158262451       -3.4103902057
 H       -14.3920967834        3.6184842251       -4.9103714018
 H       -11.1872266243        2.4674974917       -3.3542606154
 H       -11.1953140573        0.8574334155       -4.2034421980
 H       -12.3840816571        1.2114640558       -2.9856377123
 H       -16.1336603829       -3.9130970118       -5.4104162939
 H       -14.8127495770       -5.1263704392       -5.5651511923
 H       -14.6325645077       -3.6033648245       -6.2526567910
 H       -14.4631145686       -5.5132285635       -2.9701457518
 H       -15.9512534364       -4.7800153262       -3.2394409689
 H       -14.9100027167       -4.1676675032       -1.9454714352
 H        -9.3308668965       -5.6276343983       -7.1547742104
 H       -10.7588176334       -5.7958193276       -6.1538236058
 H        -9.1501095983       -5.4049493949       -5.5126151465
 H        -7.7433706611       -3.5059131139       -6.3423592257
 H        -8.2626268778       -2.1416447654       -7.1211400028
 H        -8.0890652596       -3.6497194039       -8.0887505413
 H       -14.1021375878       -4.4913477160      -12.0080590902
 H       -13.6703058609       -6.1248188580      -12.7298190355
 H       -13.7272966608       -4.6394808463      -13.7287534662
 H       -11.8011671929       -6.1225184219      -14.0522518795
 H       -10.9246946766       -6.6087962637      -12.6513554443
 H       -10.1644184927       -5.3467229864      -13.6467975140
 H        -9.3833942266        0.1114553074      -14.4776166276
 H        -8.3631817943        1.2272937982      -13.7776981084
 H       -10.0199843159        1.4625870425      -13.4365257775
 H        -7.2813457288       -1.0348561959      -11.7337060720
 H        -7.8694055335       -1.2949061086      -13.4270606403
 H        -8.6029704587       -2.1303233263      -12.0785799026
 H        -4.5881476239        0.7877077585       -5.3583209813
 H        -6.3682012753        0.7730092062       -5.0944781432
 H        -5.5219344281        2.2774818305       -5.2577550064
 H        -4.5533636638        3.1796934939       -7.3646263492
 H        -6.2866450914        3.5465624460       -7.3311779832
 H        -5.3212030596        2.9280648873       -8.7722543528
 H        -1.8432680685       -2.7836185238       -8.3505032205
 H        -0.7507545489       -3.7581550779       -9.3934921030
 H        -1.9086326542       -2.6376955455      -10.1096477916
 H         0.3587122110       -3.2223579754       -7.3309279773
 H         0.0072615393       -1.6015515094       -6.8210178367
 H         1.6579919581       -2.0458538555       -7.4749415602
 H         5.1338265037        1.7764344478      -11.6095595439
 H         3.9994986432        1.9979183947      -12.8233583517
 H         5.7593685011        1.9502331381      -13.2224079589
 H         4.1266927320       -1.5135654719      -13.9181175894
 H         4.4777753997       -0.1215170032      -14.8391000629
 H         2.9862042783       -0.1496763683      -13.8706473610
 H         9.1856058056       -4.0332503005      -10.5117553624
 H         8.7510562582       -5.4567885338      -11.5511630105
 H         7.6300740144       -4.1153077855      -11.2155305955
 H        10.9036801694       -4.8279330158      -12.5368594124
 H        11.2333851040       -3.3337190982      -11.5804055537
 H        11.4023040168       -3.3957840786      -13.3855006327
 H         6.1484382666       -1.5189944748      -17.7393565378
 H         6.4480402610       -1.9760101556      -16.0992191577
 H         5.0156681560       -2.6110918954      -16.7462431632
 H         6.9388383551       -5.0766400741      -19.0516674535
 H         6.7464493890       -3.5534683586      -19.8229114662
 H         5.3922324143       -4.0958410903      -18.8716091088
 H        13.8841010728       -6.4160204822      -15.6514323827
 H        13.0658818895       -4.9868571068      -14.9281018837
 H        14.3378765244       -4.9405225306      -16.4331728623
 H        12.8001072086       -7.2851747892      -17.8454691410
 H        13.6097323454       -5.8920106239      -18.5855700379
 H        11.8748778330       -6.2938865328      -18.9407325163
 Na      -10.5565347255       -0.1738549844       -6.9876934050
 Na       10.4150020212       -1.5741398782      -15.6339588467
