232

 C        10.1980903823       -7.3322435585      -16.7787175035
 C        11.1229892412       -6.3787789212      -16.1225006461
 O        11.1049884209       -6.3467466251      -14.9040602933
 C        12.2033466857       -5.4828409649      -16.8572765623
 C        11.6664971654       -4.0609107467      -17.0706023834
 O        11.7711890421       -3.2914989495      -16.1382982680
 C        10.9466871744       -3.6139990797      -18.3253109199
 C         9.4509907861       -4.0542826905      -18.4474188328
 C         8.5571421014       -3.1052467348      -17.6887218632
 O         8.8952639112       -1.9504797837      -17.4627240053
 C         7.0751963067       -3.5695342466      -17.5677152211
 C         7.0605484319       -4.7677015134      -16.5590611563
 O         7.7179480052       -5.7325893306      -16.9193062690
 C         6.5128675285       -4.6841996706      -15.1015603847
 C         7.5600217798       -5.0800910806      -14.1061236379
 C         8.6033898301       -3.8755360737      -14.0215422009
 O         8.8592688145       -3.3754002882      -15.0751881888
 C         9.3666179961       -3.4160399813      -12.6704504580
 C         9.0764549977       -1.8793968316      -12.4770696216
 O         9.4567819543       -1.1443040418      -13.3618524489
 C         8.3028704045       -1.2372092402      -11.2583337933
 C         7.2801556100       -0.1745526710      -11.6663836551
 C         6.1979721774       -0.8390261892      -12.5449705646
 O         6.4166702684       -1.8391278072      -13.2315792700
 C         4.8578711048       -0.0879838220      -12.6599514857
 C         4.0148145936       -0.3846912505      -11.3606386812
 O         4.6655264191       -0.6954833700      -10.3633061561
 C         2.4765886012       -0.2478448337      -11.3212415474
 C         1.9350969057       -0.6106088655       -9.9131504036
 C         0.7380391230       -1.5726790460      -10.1436299607
 O         0.5291296306       -2.2203423467      -11.1589868844
 C        -0.2696247504       -1.6856646719       -8.8496583584
 C        -0.8861539276       -0.3106397479       -8.6030572845
 O        -0.3378873680        0.8004640660       -8.3859518212
 C        -2.4370063227       -0.4739967757       -8.4313644227
 C        -3.2478906834        0.7653439702       -8.0029408456
 C        -4.7184654433        0.2786031283       -7.8022436362
 O        -5.0839732716       -0.8946199814       -8.0613238492
 C        -5.7766892189        1.2973244461       -7.2025378880
 C        -7.2217977938        0.8289054353       -7.6733274623
 O        -8.0579480446        0.5760351333       -6.8578979585
 C        -7.2849117107        0.6881443288       -9.1884200867
 C        -8.7353513520        0.5451603132       -9.6076111816
 C        -8.9162911385        0.8651236701      -11.1461851783
 O        -8.8804570920        2.0499875536      -11.3882759810
 C        -9.3130961275       -0.1303957425      -12.2702673151
 C       -10.5826079981       -0.7907404145      -11.8066648276
 O       -10.4859142735       -1.5268282184      -10.8098591599
 C       -11.8923454161       -0.7656400939      -12.4839157949
 C       -12.6017207435       -2.0912819965      -12.6423737216
 C       -11.5471527720       -3.2532759524      -12.8985820536
 O       -10.8553893582       -3.0842793861      -13.8508699646
 C       -11.8792753117       -4.7703243777      -12.3387492583
 C       -11.5520612814       -4.9296628787      -10.8669306695
 O       -10.5099355416       -5.5420563603      -10.6335014442
 C       -12.4371645666       -4.2182139585       -9.7880524437
 C       -11.7583767836       -4.3152386762       -8.3922648971
 C       -10.8315879402       -3.2788292635       -7.8622868930
 O       -10.8774526809       -2.1182728048       -8.1133742192
 C        -9.8156126678       -3.6957621018       -6.6150862315
 C       -10.2097239844       -2.8339149109       -5.3543723005
 O       -10.3127361569       -1.6278420797       -5.2884025023
 C       -10.3846198063       -3.5598398445       -4.0194123286
 C       -11.8274119626       -3.3134194439       -3.4211249907
 C       -12.8598374255       -3.7687589782       -4.3576736484
 O       -12.5022159697       -4.1148130160       -5.4782026166
 C       -14.4295707593       -3.7223665432       -4.1171159641
 C       -14.7018606065       -2.1217714923       -3.8078643255
 O       -14.6398945040       -1.7789038384       -2.6701737065
 C       -14.9889679487       -1.1390040987       -5.0349002280
 C       -14.8134861013        0.3985742727       -4.8174089973
 C       -13.5412678348        1.0032590511       -5.4577766312
 O       -13.1265778455        0.5445355731       -6.5203814415
 C       -12.7886527365        2.2671397166       -4.7227447047
 C       -12.0735352395        2.8322948469       -6.0064707452
 O       -11.2838546290        2.1407943589       -6.6645013495
 C       -12.2282387046        4.3664826582       -6.5122493576
 C       -10.8346613343        4.9087939028       -6.7389621306
 C       -10.3026887677        5.3874828225       -5.3652705616
 O       -10.6755945761        4.8418280307       -4.3662825343
 C        -9.2774793757        6.4647323622       -5.3600395096
 C        -7.7820537087        5.8057715616       -5.7347071481
 O        -7.7244933925        5.1192006989       -6.7236935361
 C        -6.5232295016        5.9761385506       -4.9778604248
 C        -9.4769163300        7.5097593875       -6.5539233620
 C        -9.2331705230        7.2356267393       -3.9209156122
 C       -13.7657846838        3.3011094562       -4.1506500208
 C       -11.7664874959        1.5719806948       -3.8097983181
 C       -15.0990506092       -4.1963542290       -5.4226323903
 C       -14.7784995770       -4.5820351748       -2.9373919621
 C        -9.8133583887       -5.1492185978       -6.3726792287
 C        -8.4054496072       -3.1455625388       -7.0796931007
 C       -13.3557452136       -4.9144633449      -12.5954133556
 C       -11.1032119038       -5.8485460159      -13.2532747224
 C        -9.3707168721        0.6310763844      -13.6815891680
 C        -8.2070764014       -1.3148169618      -12.2893787071
 C        -5.6941666598        1.0738749687       -5.6605462298
 C        -5.4515989703        2.6743859490       -7.6895553128
 C        -1.2099123695       -2.8783348888       -9.1484487558
 C         0.5884765009       -2.0620547362       -7.6157917942
 C         5.0001135921        1.5463446309      -12.6161826854
 C         4.0672085481       -0.4848418182      -14.0177816919
 C         8.7910877247       -4.1144262991      -11.4218335032
 C        10.9190563993       -3.7690018887      -12.7543745051
 C         6.2395578983       -2.4644030185      -16.9250176021
 C         6.3416156452       -3.9881258301      -18.8965373276
 C        13.4968585550       -5.3402254941      -16.0445643112
 C        12.5777793131       -6.0236435845      -18.2547581319
 H        10.6357458050       -8.2729832208      -16.8694899428
 H         9.7868030164       -7.1053723201      -17.7486266804
 H         9.2996802962       -7.4447862030      -16.2685632284
 H        11.4594245773       -3.8713809210      -19.2504644251
 H        10.8575296260       -2.5339333260      -18.4137930262
 H         9.3439982408       -5.0944787738      -18.0686965264
 H         9.3248368577       -3.9593954886      -19.5328808547
 H         5.5736984655       -5.2961883201      -14.8984564732
 H         6.0277605618       -3.7426216972      -14.8895760630
 H         8.0726860939       -6.0135627511      -14.2516555411
 H         7.0767669543       -5.2147766191      -13.0125891849
 H         8.9974987702       -0.7866522212      -10.5304816716
 H         7.7925953174       -1.9503023850      -10.6521656242
 H         7.6843266338        0.6683292296      -12.2775174775
 H         6.8489111492        0.2339329173      -10.7086113415
 H         2.0408444758       -1.0581531933      -12.0180804336
 H         2.2003370634        0.7357739609      -11.6242307137
 H         1.7598651340        0.3426419660       -9.3283080736
 H         2.6470834082       -1.1429613830       -9.2780377233
 H        -2.6324102214       -1.3144251281       -7.6797719946
 H        -2.7763968328       -0.7599155133       -9.4222959368
 H        -3.2847249550        1.5307475833       -8.7667368748
 H        -2.8421793013        1.1892028346       -7.1392515865
 H        -6.8108469549       -0.1811117956       -9.4714838600
 H        -6.8452069072        1.5044451150       -9.6518150043
 H        -9.3155786493        1.2162352429       -9.0631140373
 H        -9.0502511025       -0.4327620217       -9.3878990551
 H       -11.7065723439       -0.3861766646      -13.4983383832
 H       -12.5686597612       -0.0670119807      -11.9973493914
 H       -13.3204067538       -2.1412384613      -13.5268582092
 H       -13.2070304489       -2.2970671827      -11.8040181493
 H       -13.3649852624       -4.8269828637       -9.6904710722
 H       -12.6335319710       -3.2106441957      -10.0721188193
 H       -11.1504669981       -5.2664148250       -8.3468213456
 H       -12.6186113359       -4.3735883613       -7.6440818879
 H        -9.6997011399       -3.2712713581       -3.2116982339
 H       -10.2485426968       -4.6361943569       -4.1083541281
 H       -11.8843626133       -2.3035777029       -3.1391372235
 H       -11.9446014941       -3.6684896700       -2.3688656416
 H       -15.9951083123       -1.2806972727       -5.4771141328
 H       -14.3539587478       -1.2083178871       -5.8991000705
 H       -14.7975602924        0.5893527957       -3.7018074082
 H       -15.6497981328        0.9914159457       -5.2219928632
 H       -12.6758844930        4.9745559190       -5.8186917832
 H       -12.9029184278        4.3895091679       -7.3458084109
 H       -10.9133429496        5.7094072542       -7.5624409971
 H       -10.1729819495        4.0627542817       -7.0884127108
 H        -6.0821686063        4.9786383963       -4.6698223666
 H        -6.6022096991        6.4941100647       -4.0526727402
 H        -5.8473972588        6.4463098354       -5.7034531777
 H       -10.3921908409        8.0913195135       -6.4997234100
 H        -9.4563318045        7.0000220701       -7.4709997004
 H        -8.6404209053        8.2629637620       -6.4027913279
 H       -10.2961370203        7.4768649444       -3.6624792219
 H        -8.6183503183        8.0839023219       -4.0749273603
 H        -8.9727164482        6.5425062267       -3.1151285442
 H       -13.1853881355        4.1226026308       -3.7561065330
 H       -14.4550476788        2.9373131839       -3.4435300536
 H       -14.3823405612        3.6881168509       -4.9694914127
 H       -10.9788747842        2.2849578654       -3.4557632179
 H       -11.3325678394        0.8429832758       -4.5142294499
 H       -12.1381395784        1.0398228738       -2.9359160369
 H       -16.1563579666       -3.9880872470       -5.4043281425
 H       -14.8381119209       -5.2132500115       -5.4520004172
 H       -14.5376514008       -3.7932730463       -6.2707678970
 H       -14.2708142963       -5.5792193770       -2.9041376972
 H       -15.8228055886       -4.7808046200       -2.9679317852
 H       -14.4752881758       -4.0094518463       -2.0799859034
 H        -9.4876008740       -5.6498043982       -7.3134111690
 H       -10.8018997407       -5.5988304155       -6.1608985404
 H        -9.0892621648       -5.4793908522       -5.5926685532
 H        -7.7013195221       -3.5038561869       -6.3259669080
 H        -8.3402127193       -2.0784711956       -7.0736348536
 H        -8.2010828810       -3.4723353361       -8.0461810015
 H       -13.8889489335       -4.0324438033      -12.1104142956
 H       -13.7962489542       -5.8325281590      -12.2094638186
 H       -13.6742642595       -4.8960565931      -13.6949936363
 H       -11.7776678082       -6.1702845817      -13.9991148817
 H       -10.8608313915       -6.7710505994      -12.7259542968
 H       -10.1329357229       -5.4287216340      -13.5621587060
 H        -9.3669340808       -0.1388289228      -14.4651472894
 H        -8.4448708935        1.1066199370      -13.8665674543
 H       -10.1585723912        1.3972810215      -13.8017070951
 H        -7.6326556895       -1.2810684212      -11.4163430358
 H        -7.5616706209       -1.3856085170      -13.2188510917
 H        -8.8229436583       -2.1681288845      -12.1760009222
 H        -4.8449409335        0.5417653209       -5.3161637839
 H        -6.6042155594        0.6037075945       -5.3671195817
 H        -5.7205513513        2.0503301446       -5.1941944814
 H        -4.6504095960        3.2854532545       -7.1788712029
 H        -6.3415676677        3.2826350600       -7.6587423826
 H        -4.9838202725        2.5839753058       -8.6935123162
 H        -2.0090427773       -2.9157397683       -8.5056869810
 H        -0.5507110748       -3.7605296586       -9.1866015685
 H        -1.6164784508       -2.7791765855      -10.1258340117
 H         0.8849259543       -3.1420114384       -7.6176311743
 H         0.0525304613       -1.7320432584       -6.6955851107
 H         1.5169995787       -1.4209946967       -7.6710206669
 H         5.1339277661        1.8355562512      -11.5657500744
 H         4.0432579658        2.0391844544      -12.8616518435
 H         5.7215120068        1.9774693511      -13.2688711638
 H         4.2616530964       -1.5367648765      -14.2980141039
 H         4.4902836484        0.0877515388      -14.8238400453
 H         3.0280486197       -0.2682369713      -13.8899159840
 H         9.1905910774       -3.6643480768      -10.5137488293
 H         9.0000454174       -5.2096902477      -11.4454687882
 H         7.7574591343       -4.0002478010      -11.3526324879
 H        10.8661114874       -4.8722159004      -12.5489147881
 H        11.5164526095       -3.2601198038      -11.9743213812
 H        11.3980344045       -3.6982544085      -13.7509853544
 H         6.0784455738       -1.6826830683      -17.6333429558
 H         6.6854823720       -1.9454971475      -16.0062226792
 H         5.2610830865       -2.9176579642      -16.4929583862
 H         6.9957534240       -4.7888135705      -19.2550146962
 H         6.3302165695       -3.3123522379      -19.6939226765
 H         5.2694677372       -4.3596306169      -18.6547286546
 H        13.7556108222       -6.4242433059      -15.7768905281
 H        13.1121437545       -4.9854854163      -15.0913084174
 H        14.4404423156       -4.9738089735      -16.4775274526
 H        13.2693077019       -6.8919583770      -18.1390491711
 H        13.1211222315       -5.2933141438      -18.8664518178
 H        11.6421311772       -6.4665896176      -18.7834911027
 Na      -10.5536074653       -0.0678065198       -7.0737341070
 Na       10.3161839046       -1.6696819407      -15.5872711298
