232

 C        10.3226962943       -7.2107539326      -17.1193319990
 C        11.2582992136       -6.3697736818      -16.3612314249
 O        11.2412043931       -6.3569980415      -15.1275400657
 C        12.2699624036       -5.4793746960      -17.1460374972
 C        11.5437304638       -4.1052397293      -17.1974897541
 O        11.5901828078       -3.4046560213      -16.1674462413
 C        10.8635391458       -3.5833394500      -18.3997804747
 C         9.3695059981       -4.0620349342      -18.4459645013
 C         8.4479412077       -2.9832473513      -17.8152138880
 O         8.8414745878       -1.8435027411      -17.5116258146
 C         7.0540113945       -3.4226232366      -17.3618763982
 C         7.0661898997       -4.7560309399      -16.3330645566
 O         7.6027461924       -5.7373042942      -16.7345480285
 C         6.3890742117       -4.7820637356      -14.9088231243
 C         7.3933613299       -5.0470845833      -13.7732679545
 C         8.4923447759       -3.9454689266      -13.9432399956
 O         8.8297678205       -3.5305019525      -15.0469573898
 C         9.3122720221       -3.3235845320      -12.7863698324
 C         8.9893947099       -1.8071514992      -12.6305083477
 O         9.5210937068       -1.0364579123      -13.3950135522
 C         8.3169997292       -1.3060762250      -11.4286357432
 C         7.2108122069       -0.2565460230      -11.6295534917
 C         6.2085245932       -0.8130225885      -12.7123520000
 O         6.5444182918       -1.6462660603      -13.5258519694
 C         4.9074465190       -0.0079290808      -12.7391426492
 C         4.0283525691       -0.3216020245      -11.3903149697
 O         4.5582192998       -0.6614584436      -10.3540229274
 C         2.5091618910       -0.2790711127      -11.4379236393
 C         1.7988553633       -0.3222380410      -10.0591848894
 C         0.6851123948       -1.4272722919      -10.0586282501
 O         0.3902113915       -2.0273296362      -11.0519502145
 C        -0.1220047898       -1.6684912422       -8.8059507854
 C        -1.0253999433       -0.4235031062       -8.5213520958
 O        -0.4566261162        0.6322174908       -8.2566870264
 C        -2.4279579771       -0.6664590099       -8.1863825819
 C        -3.2454721581        0.5330661899       -7.8643466644
 C        -4.7409171248        0.0702004934       -7.6333098488
 O        -5.0764213088       -1.0271622915       -7.7998238291
 C        -5.9099093079        1.0585381238       -7.0412509644
 C        -7.2752220381        0.9267627128       -7.6926260102
 O        -8.2173358590        0.5100706552       -7.0012147520
 C        -7.4069627919        1.2846417406       -9.1534070522
 C        -8.5851606968        0.4556510773       -9.7786848662
 C        -8.8869387085        0.9130708848      -11.1910508024
 O        -8.6274540765        2.0590142672      -11.5730070721
 C        -9.2744230708       -0.2684846923      -12.1813075910
 C       -10.6203062936       -1.0276265765      -11.6693318869
 O       -10.7286788670       -1.7251436569      -10.7164118681
 C       -11.8408416213       -0.7976954231      -12.6054782660
 C       -12.6013507458       -2.0783918016      -12.8099518787
 C       -11.6244366993       -3.2951556216      -13.1073616467
 O       -10.5437166561       -3.1381470664      -13.6798170634
 C       -11.9488267133       -4.6179778624      -12.4017412352
 C       -11.4350134861       -4.7131570190      -10.9119942323
 O       -10.4886293702       -5.4156228985      -10.6792564421
 C       -12.3112142431       -3.9048592812       -9.7326291131
 C       -11.7591464382       -4.3348217151       -8.3478552846
 C       -10.9561095780       -3.1775770802       -7.6824972716
 O       -11.0875280320       -2.0091169780       -8.0500688891
 C        -9.8304118982       -3.5328529867       -6.5671300856
 C       -10.1810794561       -2.8392542668       -5.2882101576
 O       -10.3992052761       -1.6216767604       -5.3536013293
 C       -10.4750887230       -3.5148321199       -3.8933275917
 C       -11.9323034117       -3.1727743781       -3.5461431706
 C       -12.8772865211       -3.7211716537       -4.5215939098
 O       -12.3548581691       -4.1926328071       -5.5434362801
 C       -14.3438093587       -3.6735924058       -4.1612553019
 C       -14.7558573399       -2.1321218639       -3.8550912770
 O       -14.6624280882       -1.7058754200       -2.7013671940
 C       -15.0205663891       -1.2827147440       -5.0066728884
 C       -14.6199420670        0.1813850360       -4.4786291596
 C       -13.6620307351        0.8370703115       -5.3852907538
 O       -13.3011820969        0.3261666326       -6.4086741713
 C       -12.8688282978        2.1177716411       -4.8977815931
 C       -12.0206863659        2.7532113787       -6.1965814849
 O       -11.1039919065        2.1786157658       -6.6953381917
 C       -12.3118152821        4.1872848453       -6.6643161092
 C       -10.9140194710        5.0273187522       -6.8800304936
 C       -10.2389718404        5.3793754894       -5.5439671165
 O       -10.4718861187        4.7918001023       -4.4673348139
 C        -9.1145134098        6.4618569636       -5.5343945298
 C        -7.8087039472        5.5947664141       -5.7590277596
 O        -7.7454034258        4.6916476673       -6.6017169270
 C        -6.5313298995        5.9352867064       -4.8672786568
 C        -9.2403612258        7.5101650634       -6.6509450583
 C        -9.1623806826        7.2027629155       -4.1665729325
 C       -13.7848103933        3.1162314421       -4.0407841265
 C       -11.7707940706        1.6285311892       -3.9012525875
 C       -15.3011913269       -4.2955137215       -5.2958677576
 C       -14.5687165057       -4.4451917473       -2.8589776422
 C        -9.5725422554       -5.0420040927       -6.4472435657
 C        -8.4325200901       -2.9387444922       -7.0321076462
 C       -13.4214947783       -5.0799248336      -12.3797499377
 C       -11.2295566832       -5.7476251080      -13.2288462111
 C        -9.3771579168        0.3019361329      -13.6255058909
 C        -8.0949305041       -1.2711638705      -12.1683685074
 C        -5.7935846340        0.9767792588       -5.4518867524
 C        -5.4119875353        2.5412120701       -7.3871259257
 C        -0.9849677433       -2.9406586896       -9.0215331282
 C         0.8889710869       -1.8824231162       -7.4632357248
 C         5.0057982852        1.5430414310      -12.6809640465
 C         4.0442471543       -0.4685651897      -13.9641060404
 C         9.0996551251       -4.1840901403      -11.5047273783
 C        10.8296270314       -3.5178594672      -13.1313960077
 C         6.3328783286       -2.2027418549      -16.7644551673
 C         6.3181652966       -3.9456346694      -18.5879381867
 C        13.5333604439       -5.4231180487      -16.2769136742
 C        12.6504734185       -6.0934644487      -18.4969434247
 H        10.6759665573       -8.2486165651      -17.2677075950
 H         9.9518194541       -6.8433159624      -18.0471183161
 H         9.3580512874       -7.3960521657      -16.5771992582
 H        11.4533858944       -3.6998545350      -19.3277157957
 H        10.7910637464       -2.4832313488      -18.2163875680
 H         9.3652869093       -5.0079616220      -17.9488871465
 H         9.1017999474       -4.0713587736      -19.5051453203
 H         5.5480073707       -5.3801523676      -14.8643615044
 H         5.8732603638       -3.8314681439      -14.7477793885
 H         7.8695974221       -6.0446708614      -13.7876865276
 H         7.1022204212       -4.9442118239      -12.7478755853
 H         9.0842517043       -1.0512719125      -10.7285363289
 H         7.8504339803       -2.1560092184      -10.8938264176
 H         7.4605438034        0.7653667932      -11.9682654081
 H         6.6227653035       -0.1531859864      -10.7024251670
 H         2.2374560925       -1.1828976952      -11.9044086663
 H         2.2060894445        0.6003183395      -12.0731185989
 H         1.3095233479        0.5708314222       -9.7369659353
 H         2.5479220105       -0.5413898289       -9.2946537861
 H        -2.2821102716       -1.2039997976       -7.3004976290
 H        -2.9141573381       -1.3327298328       -8.9137941814
 H        -3.3169255829        1.3493259714       -8.6034223659
 H        -2.8490328728        1.0501198150       -6.9240056859
 H        -6.4649641922        0.9253692283       -9.7552465640
 H        -7.6789912287        2.3721100585       -9.4074571559
 H        -9.6377355449        0.6195113343       -9.2870036197
 H        -8.3884434875       -0.6500290213       -9.6936672681
 H       -11.6065604787       -0.3785467566      -13.5692435672
 H       -12.3904126681       -0.0348926034      -12.0200840026
 H       -13.2183530754       -2.1413331123      -13.6715935399
 H       -13.2448714782       -2.3524908232      -11.9294552871
 H       -13.3136049102       -4.2881665432       -9.8098420878
 H       -12.2369074815       -2.7879065236       -9.8746770412
 H       -11.1347716432       -5.1925445475       -8.5057262314
 H       -12.5569651443       -4.5168898743       -7.6520356526
 H        -9.8772935235       -2.9688518048       -3.1577233692
 H       -10.2523906300       -4.5531941037       -3.6882459940
 H       -11.9425542493       -2.0422310608       -3.3346344501
 H       -12.1856665033       -3.3895588525       -2.5246963997
 H       -16.0259410878       -1.1996738612       -5.4089147988
 H       -14.3724678588       -1.4022254094       -5.9231397668
 H       -14.1557614459       -0.0127610904       -3.5307444010
 H       -15.4814412061        0.8172408474       -4.2361325159
 H       -12.9461337751        4.6480044966       -5.8207234217
 H       -13.0026651592        4.1779592490       -7.5379321001
 H       -11.1897297491        5.8729864707       -7.4072609805
 H       -10.2143755676        4.4450402483       -7.4363984347
 H        -6.5465669984        5.2478648238       -4.0612195612
 H        -6.5619282690        6.8477890497       -4.2280829297
 H        -5.6094108514        5.8085527427       -5.4135414563
 H       -10.2844317913        7.8562991227       -6.6783763635
 H        -8.9377755582        7.0195542884       -7.6096930969
 H        -8.6340061077        8.3440782827       -6.4919204018
 H        -9.7503787203        8.1357901394       -4.2766788430
 H        -8.0963272837        7.5483584467       -3.9207346267
 H        -9.6193897310        6.4900014231       -3.4421125611
 H       -13.2195435649        4.0533009360       -3.8274672401
 H       -14.2681546716        2.5980334532       -3.1118080467
 H       -14.7199293634        3.4279763838       -4.5810169164
 H       -11.3856820942        2.5538736340       -3.4936450670
 H       -10.9840532290        1.0107647198       -4.2995173595
 H       -12.2395321350        1.1280793514       -3.0411246344
 H       -16.2552510274       -4.1789967774       -4.7608621472
 H       -15.0328071493       -5.3723680378       -5.5870516263
 H       -15.2517548961       -3.6787641213       -6.1982859709
 H       -14.3530847106       -5.4934598617       -3.0067691702
 H       -15.6653798126       -4.3860731078       -2.6248507986
 H       -13.8649817035       -4.0692484930       -2.0708420986
 H        -9.3100619203       -5.4705841689       -7.3887516436
 H       -10.3918203423       -5.7316810600       -6.1186204601
 H        -8.6998539055       -5.1025979821       -5.7989556038
 H        -7.7523043693       -3.1475301982       -6.2356043149
 H        -8.3998376290       -1.8651286742       -7.3329637579
 H        -8.1793637955       -3.4875118663       -8.0355120642
 H       -14.0144545824       -4.3114490600      -12.0107154148
 H       -13.5810870876       -5.9921903751      -11.8129935408
 H       -13.7458711876       -5.3130246923      -13.3212984395
 H       -11.5499019771       -5.6496323961      -14.2619340102
 H       -11.4406456020       -6.7687471937      -12.9643261558
 H       -10.2247085629       -5.5689479529      -12.9809836472
 H        -9.8192192541       -0.4338695630      -14.3364076380
 H        -8.4020360264        0.6852582889      -14.0512588014
 H       -10.0803177884        1.1365127625      -13.5482346358
 H        -8.2325444160       -1.9585027827      -11.2485392054
 H        -7.2267671361       -0.7173108102      -11.9991948400
 H        -8.0751398569       -1.8204851012      -13.1179738474
 H        -4.7151826263        0.9464611485       -5.2074449988
 H        -6.3326355647        0.1549391248       -4.9859019215
 H        -6.1937136480        1.9213457951       -5.1066504712
 H        -4.4808181241        2.6773514557       -6.8614019163
 H        -6.0571216773        3.2581269913       -6.8497398500
 H        -5.2300244420        2.8535984496       -8.4112611569
 H        -1.5972256368       -3.2653218849       -8.1427663728
 H        -0.4065841341       -3.7398847070       -9.4899319960
 H        -1.8146230378       -2.5653937248       -9.7042417527
 H         1.8903202997       -2.0848369132       -7.8586526267
 H         0.4447809324       -2.7231482286       -6.8769481437
 H         0.8641780869       -1.0253252333       -6.7497311303
 H         5.5854544101        1.9307369107      -11.8550741176
 H         3.9992708611        2.0616411547      -12.7808980731
 H         5.4328683496        1.8059464672      -13.6731062205
 H         3.9982359764       -1.5652073701      -13.8821786232
 H         4.6064729969       -0.2529694449      -14.8968809315
 H         3.0306055006        0.0026053557      -13.9647765204
 H         9.6902991577       -3.8608640230      -10.6556287530
 H         9.4320707061       -5.1542663844      -11.8898025639
 H         8.0707701191       -4.3228588686      -11.1280979079
 H        11.1296134088       -4.5221080603      -13.2526429621
 H        11.4426609328       -3.0596532370      -12.3072797746
 H        11.0046549050       -3.0429190530      -14.0957887898
 H         6.4662970738       -1.2662195474      -17.3556490518
 H         6.7514833552       -1.9968180592      -15.8194518036
 H         5.3041189906       -2.4069727846      -16.6178777011
 H         6.9350144794       -4.5087679553      -19.3233204659
 H         6.0421913244       -2.9974913428      -19.1733459063
 H         5.4406446592       -4.4364192173      -18.2722062376
 H        14.0448671600       -6.3160539376      -16.2262048957
 H        13.3506577079       -5.0763514510      -15.2808982568
 H        14.1653265484       -4.7978080792      -16.8492738831
 H        13.1798166120       -7.0428232899      -18.3364350708
 H        13.3942546400       -5.4356291762      -18.9637220707
 H        11.8615576542       -6.3597066380      -19.1245814525
 Na      -10.4419171562        0.0959855316       -7.0390247251
 Na       10.0566014945       -1.6532526289      -15.4795538341
