232

 C        10.5243823570       -7.3905851908      -17.3027932073
 C        11.3762493950       -6.4237038569      -16.5386741595
 O        11.2280884160       -6.3610425654      -15.3693642474
 C        12.3546365400       -5.4620374529      -17.3715500083
 C        11.5833852657       -4.1069558901      -17.3099315959
 O        11.5318784605       -3.3912898280      -16.3348122068
 C        10.8265912285       -3.6515450282      -18.5555542211
 C         9.2824753916       -3.9361556963      -18.5564446308
 C         8.3918303360       -2.9182855585      -17.7827339661
 O         8.7100120522       -1.8241083324      -17.3658083363
 C         6.9202091705       -3.2786048708      -17.1826676177
 C         7.0252893631       -4.6729706132      -16.2440981179
 O         7.5620001354       -5.6934924320      -16.6850557657
 C         6.2223188318       -4.7047407045      -14.9012834869
 C         7.1581273132       -4.7254881995      -13.6736235698
 C         8.5619699634       -3.8742687243      -13.9243578859
 O         8.8525130166       -3.5595588321      -15.0634630226
 C         9.4843773580       -3.4089478778      -12.7360255900
 C         9.0181879851       -1.8933999556      -12.5499656362
 O         9.2903915513       -1.0554855793      -13.4085466621
 C         8.2830552137       -1.3730414316      -11.3401399955
 C         7.4068340296       -0.2060152894      -11.5775209248
 C         6.2360883103       -0.6647949192      -12.6569654515
 O         6.5016961631       -1.4928630694      -13.5264644424
 C         4.7996680268       -0.0325936007      -12.8046252859
 C         4.0242632377       -0.3693648611      -11.4417723068
 O         4.6197974010       -0.6191201060      -10.4524855955
 C         2.5020076047       -0.1991881224      -11.5222110029
 C         1.6910519160       -0.1390190509      -10.2303756967
 C         0.6211361216       -1.1866042732      -10.1117823330
 O         0.3328655408       -1.8765594092      -11.0506371299
 C         0.0700957915       -1.7335562550       -8.5646213948
 C        -0.9929022748       -0.5959908029       -8.2742824925
 O        -0.6698090339        0.5463487170       -8.2912349868
 C        -2.5775486566       -0.9054729790       -7.9792298674
 C        -3.3584953516        0.3598503230       -7.6665006887
 C        -4.8921409327        0.0283778360       -7.4375235416
 O        -5.4106183675       -1.1022429598       -7.5472064870
 C        -5.8331926438        1.1981817146       -6.9158999019
 C        -7.2640401638        1.0400114858       -7.6051615332
 O        -8.0007990454        0.4445455969       -6.8582228275
 C        -7.6947352408        1.5325736310       -9.0056146962
 C        -8.6248540778        0.5576484130       -9.7472675290
 C        -8.7742071312        0.8417437857      -11.3065960742
 O        -8.6156127265        1.9196410776      -11.7395544551
 C        -9.0473590098       -0.3509468366      -12.3189575491
 C       -10.4702997231       -0.9631109298      -11.9309030463
 O       -10.5064218007       -1.4358390854      -10.7880765801
 C       -11.9490009775       -0.7617376460      -12.6762897154
 C       -12.7129892020       -2.1176307547      -12.8326356115
 C       -11.7156308790       -3.3504484122      -13.0427219001
 O       -10.5782464995       -3.1331493554      -13.3458426303
 C       -12.0304154591       -4.7517800705      -12.3836956662
 C       -11.3337014445       -4.6964512005      -10.8558082177
 O       -10.2393721233       -5.1194586485      -10.5423282240
 C       -12.1665818070       -3.9575045801       -9.8415884939
 C       -11.6461967624       -4.3036139376       -8.3983959514
 C       -10.8857494099       -3.1348268253       -7.6816733357
 O       -11.3231446756       -2.0369374289       -7.8920661426
 C        -9.7034276343       -3.3271993386       -6.6471387426
 C       -10.2055181080       -2.6527608419       -5.3155282700
 O       -10.3970034142       -1.4536156560       -5.2881415524
 C       -10.4287360525       -3.4261740095       -4.0411698669
 C       -11.8821530803       -3.2511525991       -3.5586691980
 C       -12.9758366698       -3.7398243690       -4.4285489263
 O       -12.7121973809       -4.2370297541       -5.4833746879
 C       -14.4518754550       -3.7206669781       -4.0125468460
 C       -14.7363514598       -2.2444783586       -3.6270974914
 O       -14.6727894737       -1.9232803435       -2.4576966255
 C       -15.0561995232       -1.1947026954       -4.7660072673
 C       -14.5896370542        0.3236887299       -4.7059412466
 C       -13.3731227217        0.7607451077       -5.5238798140
 O       -13.0397581950        0.1664733032       -6.5478605576
 C       -12.7085135372        2.0363244454       -4.9552070655
 C       -11.9552292011        2.8018280219       -6.0944193535
 O       -11.0651314430        2.2263019752       -6.7408993823
 C       -12.3164172120        4.2801645115       -6.5583173948
 C       -11.1627469213        5.1335625922       -6.9477911824
 C       -10.3240018864        5.3283656845       -5.6525287358
 O       -10.5229562506        4.6697019430       -4.6719082595
 C        -8.9857720586        6.3538852423       -5.6189190046
 C        -7.7267737745        5.4664914181       -5.7038296505
 O        -7.8663965270        4.5490629996       -6.4830770386
 C        -6.5162785443        5.7890823470       -4.8319957126
 C        -8.9479756871        7.2871525594       -6.8397326461
 C        -9.1277705678        7.1529769439       -4.3437596550
 C       -13.7695734005        2.9992336145       -4.3936747221
 C       -11.5627824352        1.6234730081       -3.8689367763
 C       -15.3062473564       -4.3131247418       -5.2039700255
 C       -14.6490594706       -4.6693087432       -2.7448836748
 C        -9.4427409926       -4.8413566579       -6.3667707612
 C        -8.4715080844       -2.6706360704       -7.1984945554
 C       -13.6197025934       -5.0111601094      -12.4225038888
 C       -11.2174291256       -5.7701864874      -13.1755419059
 C        -9.1391178056        0.2089427322      -13.7348697704
 C        -8.0828699158       -1.5764530400      -12.1994123264
 C        -6.0845140977        0.7890591770       -5.4028277122
 C        -5.3263350632        2.6283079369       -7.0824047247
 C        -0.6114972850       -3.1482518180       -8.7588955901
 C         1.1865821573       -1.8619154322       -7.5078382750
 C         5.0200235367        1.5144459388      -12.8963748477
 C         3.9946337291       -0.4456763426      -14.0364109765
 C         9.3085434528       -4.3215721412      -11.4907238621
 C        10.9521755479       -3.3571633033      -13.1664297746
 C         6.1988633351       -2.1106835959      -16.5433082446
 C         6.0881714409       -3.8535390627      -18.3881472254
 C        13.6217384234       -5.2892204904      -16.4616796728
 C        12.6931642033       -6.0732827081      -18.7507529904
 H        11.0000996089       -8.3910881184      -17.4082185103
 H        10.1185653091       -7.0977699328      -18.3127210581
 H         9.6187233052       -7.7112508270      -16.7680715448
 H        11.2671490448       -4.0911745953      -19.4554372238
 H        11.0190925267       -2.5811595821      -18.5826022291
 H         9.2458179274       -4.9464757034      -18.0785817320
 H         8.9515200256       -3.9539623387      -19.5914506547
 H         5.3890431936       -5.5250599105      -14.9270195507
 H         5.5599636780       -3.8267886492      -14.7873908446
 H         7.4616761135       -5.7544112602      -13.3094669893
 H         6.5925905566       -4.3232764393      -12.8176258732
 H         9.0433935797       -1.1493190433      -10.5089152041
 H         7.7526824236       -2.2018699416      -10.8580571020
 H         7.9366598719        0.6320552671      -12.0259348162
 H         6.8679698310        0.2319838029      -10.7179551793
 H         2.0689766333       -0.9714993756      -12.2159319062
 H         2.4117252636        0.7449062396      -11.9863212934
 H         1.1912637262        0.8713610791      -10.0780637180
 H         2.3926456765       -0.2325038222       -9.3721271707
 H        -2.5432931726       -1.5832924318       -7.0491623302
 H        -3.1322162990       -1.4268667121       -8.7571128827
 H        -3.3078770042        1.1225998788       -8.4541459366
 H        -3.1409198808        0.8998615922       -6.7831172838
 H        -6.9049104827        1.7889906456       -9.6016611848
 H        -8.3187150368        2.3832540056       -8.8646943446
 H        -9.5742364412        0.4053668089       -9.3113180813
 H        -8.0968887250       -0.3984112192       -9.6352544335
 H       -11.7446472663       -0.3424645615      -13.6763424464
 H       -12.5400439233       -0.0583393018      -12.0816210652
 H       -13.5589470875       -2.0495110143      -13.6009777102
 H       -13.0900482543       -2.4070406034      -11.8672022080
 H       -13.2598227213       -4.1126755289       -9.9982318878
 H       -11.8614890024       -2.9421155990      -10.0245238375
 H       -10.9463111689       -5.1388397507       -8.6003921704
 H       -12.4152972489       -4.5179974296       -7.6063554573
 H        -9.6439672931       -3.1167256824       -3.3339442627
 H       -10.2850704829       -4.5333281523       -4.0989804606
 H       -12.0591705129       -2.2318253885       -3.5293983728
 H       -11.9656775798       -3.4014315317       -2.4837993898
 H       -16.1171180267       -0.9794767105       -4.8738051851
 H       -14.7131355850       -1.5361694450       -5.6907464515
 H       -14.5163610575        0.3970180495       -3.6057337637
 H       -15.4670117576        0.9342061957       -4.9314382808
 H       -12.9461504719        4.7696283652       -5.8578365062
 H       -12.9488854082        4.1952072235       -7.4669030659
 H       -11.7198506323        6.0468047934       -7.3167068479
 H       -10.6216012366        4.6735864221       -7.7999359440
 H        -6.8039783111        6.3332098610       -3.9217753207
 H        -6.0686619410        6.6217536517       -5.3015194288
 H        -5.7684235183        4.9791389113       -4.7075745891
 H        -9.8584334130        7.8619369210       -6.9431048092
 H        -8.6036950658        6.7800188060       -7.7278270384
 H        -8.0727907379        8.0219261515       -6.6647614185
 H       -10.0440389345        7.7291583457       -4.4218225344
 H        -8.4222209060        7.9391187027       -4.2264933850
 H        -9.0475439519        6.4105019332       -3.5566753863
 H       -13.2712333402        3.9077139697       -4.1045960704
 H       -14.2498407044        2.6060750863       -3.5895981780
 H       -14.5622925878        3.2993035528       -5.0522747852
 H       -11.0042774286        2.4423908151       -3.4720590733
 H       -10.8638132236        0.9994447700       -4.4448117145
 H       -11.9759017639        1.0462302538       -3.0722548753
 H       -16.2940813005       -4.4190138135       -4.8039463282
 H       -14.8801396296       -5.2297831136       -5.4186486862
 H       -15.2257142430       -3.6515869721       -6.0539131832
 H       -14.3461647763       -5.7059839752       -2.8227776426
 H       -15.6861581676       -4.5843977845       -2.5567871683
 H       -14.1302301603       -4.2174755242       -1.9608605135
 H        -8.9941544277       -5.3852866278       -7.2442101201
 H       -10.3585304749       -5.2937896062       -6.2925220766
 H        -8.8218018299       -5.0053539195       -5.4999900077
 H        -7.7237569650       -2.6227056041       -6.3442743564
 H        -8.7364968005       -1.7012217535       -7.5468792499
 H        -8.0991121694       -3.1360228541       -8.0241103025
 H       -14.1753375520       -4.3177981374      -11.7488796001
 H       -13.8750689227       -6.0260569649      -12.1906825340
 H       -13.9655629430       -4.8397219632      -13.5074780278
 H       -11.2676840229       -5.3804978667      -14.2125877152
 H       -11.6489545392       -6.7800550993      -13.1829540207
 H       -10.1923001594       -5.8003621465      -12.7283755303
 H        -9.3766511582       -0.5476308647      -14.4729216233
 H        -8.2040698880        0.6955304575      -13.8871883647
 H        -9.9513531284        0.9526861089      -13.8289320441
 H        -8.5934884844       -2.3866878611      -11.8468891242
 H        -7.3016377234       -1.3566474013      -11.4051292141
 H        -7.6080363957       -1.7353855975      -13.1666533889
 H        -5.2814139403        1.2342634934       -4.8118522178
 H        -5.9332301857       -0.3138399110       -5.4148611284
 H        -7.0955685471        1.0269622362       -5.0055407451
 H        -4.2554160424        2.7409534025       -6.8006923029
 H        -5.8335113300        3.3368465766       -6.4511087282
 H        -5.5205121791        2.9389174443       -8.1340373184
 H        -1.1483501329       -3.4852647412       -7.8517194654
 H         0.3010438934       -3.7692137323       -8.8191431982
 H        -1.2992614898       -3.2594927291       -9.5638277390
 H         2.0137080362       -1.3842566193       -7.9546762496
 H         1.4352878676       -2.8622285007       -7.3100454573
 H         0.9253267818       -1.5899725398       -6.5133197420
 H         5.6908307926        1.7299851719      -12.0283031556
 H         4.1249352739        1.9947802535      -12.8180927405
 H         5.4451236317        1.8854821613      -13.8263578155
 H         3.3314606162       -1.2951892277      -13.8829839977
 H         4.7472997838       -0.6428962381      -14.7869746746
 H         3.4560204508        0.4303858704      -14.3538149614
 H         9.9929874558       -3.8681003171      -10.7570595160
 H         9.4819946721       -5.3620041068      -11.6243701763
 H         8.2782937146       -4.1440979539      -11.1023612380
 H        11.1231084899       -4.2132745573      -13.9015177456
 H        11.6322493508       -3.5725934716      -12.3924620192
 H        11.1358485402       -2.5050419247      -13.7734038918
 H         6.2188471654       -1.2433590019      -17.1887606655
 H         6.6663591072       -1.8427185231      -15.5596183552
 H         5.1383597695       -2.3901511729      -16.4876339662
 H         6.3810165883       -4.8928785209      -18.5432567969
 H         6.1428942295       -3.2966158241      -19.2949375639
 H         5.0438097047       -3.8952076647      -17.9778867889
 H        14.2382182623       -6.2726072729      -16.5130853017
 H        13.4249305757       -5.0529812530      -15.3951626981
 H        14.2137072202       -4.4375021991      -16.9386467106
 H        12.5601482613       -7.1122365311      -18.8915466457
 H        13.7283536070       -5.8155951474      -18.9372721019
 H        12.1312200712       -5.6719604799      -19.6191214319
 Na      -10.6216420351       -0.1034222338       -6.9163816895
 Na        9.9843213419       -1.7020449657      -15.7162301138
