232

 C        10.7509914242       -7.5666665343      -17.4510671041
 C        11.3332861431       -6.4154452643      -16.7513935486
 O        11.2385158902       -6.3330891475      -15.5285213256
 C        12.2904318873       -5.3961224099      -17.5844279149
 C        11.4460329723       -4.0559741921      -17.5480521741
 O        11.5875559270       -3.3083705364      -16.5599528416
 C        10.5026838623       -3.6127382978      -18.6475511331
 C         8.9658530245       -4.0397743235      -18.5080866920
 C         8.1575612313       -2.9672440951      -17.7638019427
 O         8.5941652244       -1.8442669807      -17.5248815961
 C         6.7642373532       -3.2887674037      -17.2648682661
 C         7.0123078106       -4.6396226754      -16.1706946841
 O         7.6228777077       -5.5895626580      -16.5652580407
 C         6.2538677796       -4.5024431451      -14.7753848020
 C         7.2266744287       -4.4205389097      -13.5535127113
 C         8.5583929473       -3.8103285393      -13.9448564834
 O         8.8493897260       -3.6121936532      -15.1103630605
 C         9.4918630811       -3.3793358466      -12.6708081157
 C         9.0495612579       -1.8846653956      -12.6143572919
 O         9.2493164790       -1.0887061645      -13.5099166682
 C         8.1742386756       -1.4308274179      -11.3708551364
 C         7.2373910999       -0.2189282293      -11.6282951136
 C         6.1816603992       -0.6874680247      -12.6926099053
 O         6.3800988472       -1.6979350372      -13.3202408206
 C         4.8356116682        0.1330162514      -12.7653318499
 C         3.8741461400       -0.2008993743      -11.4931024880
 O         4.3874520234       -0.5982774651      -10.4205864554
 C         2.3813208406       -0.0479594177      -11.5570417898
 C         1.7341382140       -0.2171410510      -10.0938299516
 C         0.5784096560       -1.2856634419       -9.9996098666
 O         0.2523663429       -1.7871310298      -11.0757524257
 C         0.1325792125       -1.6760664268       -8.5209982140
 C        -1.0296573256       -0.6606366956       -8.2229698483
 O        -0.8409785916        0.5454448377       -8.1949493960
 C        -2.4994011798       -1.1710525357       -7.8479262021
 C        -3.3673853631        0.1101154268       -7.5513366123
 C        -5.0594187335       -0.1698501275       -7.3195312454
 O        -5.4784426661       -1.2490465688       -7.6091969699
 C        -5.9703609043        1.1641726482       -6.7937902721
 C        -7.4861886081        0.9462015962       -7.4866286697
 O        -8.4311880650        0.3674712936       -6.9593239546
 C        -7.7153475746        1.4973808817       -8.9500772509
 C        -8.4617793967        0.4354258086       -9.8152234420
 C        -8.6030085026        0.7756402168      -11.2790672090
 O        -8.5126287956        1.9321046033      -11.7772976456
 C        -8.9788714105       -0.3095788198      -12.2831386985
 C       -10.4779335892       -0.7656689220      -11.8323427697
 O       -10.5513600912       -1.2154562827      -10.7223065063
 C       -11.5781535736       -0.7874803989      -12.9018510520
 C       -12.4379785652       -2.0203443065      -12.4945868193
 C       -11.4875262638       -3.2108192173      -12.8202425841
 O       -10.3902853813       -3.0836556673      -13.3463373375
 C       -12.0096294061       -4.7223927154      -12.3067038820
 C       -11.3296199046       -4.8341195063      -10.8402074736
 O       -10.1183118586       -5.0052980288      -10.7645845208
 C       -12.1642516288       -4.1799873721       -9.7279367229
 C       -11.5131147979       -4.3528293857       -8.3828031635
 C       -10.9948318296       -3.1006811290       -7.7260245132
 O       -11.3720083318       -1.9603250804       -7.9348448563
 C        -9.8052072812       -3.2733104220       -6.6113510289
 C       -10.2263928125       -2.5997785727       -5.2134427518
 O       -10.2650737349       -1.3875931907       -5.0048712331
 C       -10.5299238456       -3.6060022280       -4.0206083610
 C       -11.9244574401       -3.3065502359       -3.4186109351
 C       -13.0078041264       -3.8213136894       -4.3219585552
 O       -12.7218584325       -4.2749941547       -5.4554683074
 C       -14.5244664631       -3.7833668149       -3.8734943683
 C       -14.6953683145       -2.2193170503       -3.5880172877
 O       -14.6860138434       -1.7264245398       -2.4956760523
 C       -14.8793269431       -1.3735462696       -4.8286701960
 C       -14.5306950411        0.1897652298       -4.6354186888
 C       -13.3814138359        0.6514419803       -5.4308333792
 O       -12.8437875862       -0.1081234079       -6.2451722051
 C       -12.6482219022        2.0148325549       -5.0397420354
 C       -11.8826425997        2.8442650290       -6.2386596576
 O       -11.0111503540        2.3667572210       -6.9062820663
 C       -12.3752911081        4.1957676356       -6.6975383897
 C       -11.1483238880        5.1989960290       -6.9501593295
 C       -10.3109728232        5.3115150928       -5.6640748442
 O       -10.5487558205        4.6166799927       -4.6841736887
 C        -9.0160184232        6.1867911950       -5.7176807862
 C        -7.7284477504        5.2303002511       -5.6590153777
 O        -7.7751930145        4.2539977381       -6.3894632924
 C        -6.4854360435        5.6820981898       -4.8656932853
 C        -8.9275960364        7.0810166646       -7.0697455616
 C        -9.2228007974        7.1058556902       -4.5302948314
 C       -13.6334922349        2.9525949640       -4.3585905654
 C       -11.5540933126        1.6878043415       -4.0274644377
 C       -15.5078843573       -4.1353983638       -4.9833177894
 C       -14.7374332807       -4.6368833530       -2.6392290502
 C        -9.2677765592       -4.7309292903       -6.5381148131
 C        -8.6283665480       -2.4921580064       -7.2708365931
 C       -13.5502262976       -4.8953583641      -12.3005884135
 C       -11.3815843394       -5.8192399394      -13.1887749101
 C        -8.9183419328        0.1607216326      -13.7439603942
 C        -8.0631161994       -1.6482033810      -12.2473860954
 C        -6.0411074567        0.9554957634       -5.2572547324
 C        -5.2772422226        2.5199298495       -7.0467523322
 C        -0.3363194066       -3.1747807012       -8.6655133024
 C         1.1936741932       -1.3966058502       -7.4803173071
 C         5.0507520997        1.6757065422      -12.8406403001
 C         4.1832648515       -0.5068783055      -14.1180736145
 C         9.2840744753       -4.1821006543      -11.3468922285
 C        11.0409073177       -3.5499536908      -13.2021604998
 C         6.1188167676       -2.0493609552      -16.5285528629
 C         5.9623728112       -3.7679835226      -18.5186786251
 C        13.5336574935       -5.1493733423      -16.6902944038
 C        12.7465064396       -5.8292890296      -18.9753624375
 H        11.3529190566       -8.4079853642      -17.4814215403
 H        10.4901136023       -7.3514073954      -18.4541212663
 H         9.9420963843       -8.0010605690      -16.9364589959
 H        10.8882598818       -4.0031145233      -19.5882364115
 H        10.4530723543       -2.5077597406      -18.6158400376
 H         8.9126796644       -4.9952683175      -17.9995839173
 H         8.6790186833       -4.1517817206      -19.6034908507
 H         5.6387781149       -5.3444303977      -14.6354871305
 H         5.6411661722       -3.6006934633      -14.7363767593
 H         7.4466161052       -5.3603553373      -13.1001954596
 H         6.7133449770       -3.8027809559      -12.6742481808
 H         8.7485244779       -1.2311079518      -10.5295809153
 H         7.5938185964       -2.2868848102      -11.0535827847
 H         7.6659110190        0.7752142876      -11.8962333864
 H         6.6161664941        0.0935224587      -10.7825605370
 H         1.9392850418       -0.7115649989      -12.2970850995
 H         2.0796356107        1.0350988966      -11.8062146563
 H         1.3196586916        0.7355909879       -9.8937075129
 H         2.4583836207       -0.3976109662       -9.3070490035
 H        -2.5043764820       -1.7738198970       -6.9942796277
 H        -2.8834097124       -1.7538036565       -8.7091572317
 H        -3.3407431250        0.8510524785       -8.3289724527
 H        -3.0113062835        0.6818315818       -6.6725368877
 H        -6.6390254791        1.6662375271       -9.3951267620
 H        -8.2535200290        2.4607316184       -8.9994924285
 H        -9.4863077026        0.1442367693       -9.4485937154
 H        -7.9406978860       -0.4817143987       -9.6781852444
 H       -11.1754532335       -0.7780174361      -13.8986436426
 H       -12.2872059149        0.0310305438      -12.7575710164
 H       -13.3460743506       -1.9455198004      -13.0188956883
 H       -12.5549932227       -1.9718886997      -11.3870288033
 H       -13.1546644614       -4.6065303161       -9.6687761961
 H       -12.2248290341       -3.0885830516       -9.9699518930
 H       -10.6264576284       -4.9933255474       -8.5554818837
 H       -12.2020132076       -4.7882378521       -7.6800232406
 H        -9.7830365896       -3.3341514039       -3.2771585009
 H       -10.3733004209       -4.6408087058       -4.1892209435
 H       -11.8598578513       -2.2318092097       -2.9651035671
 H       -12.0180204495       -3.8469018315       -2.4633197183
 H       -15.9495567590       -1.3780889115       -5.1451386120
 H       -14.1942931733       -1.6261457488       -5.7051574341
 H       -14.5182572711        0.2592408358       -3.5608201205
 H       -15.4632769706        0.7506357708       -4.8849205345
 H       -13.0615432759        4.5720481742       -5.9331771458
 H       -13.0458627902        3.9565160220       -7.5089254332
 H       -11.5019627641        6.1279809109       -7.3773466087
 H       -10.4538379964        4.6925451485       -7.6399111489
 H        -6.4666040517        6.7389366531       -4.5781892866
 H        -5.4824246007        5.4785487673       -5.3427088504
 H        -6.5403646310        5.0202905098       -4.0370325825
 H        -9.6541665688        7.8982578499       -6.9168239484
 H        -9.1698640488        6.5327821267       -7.9756730170
 H        -7.9911679937        7.4438311116       -7.3056583374
 H       -10.2261008061        7.4926549928       -4.5424348156
 H        -8.7212954985        8.1008454584       -4.6208512110
 H        -8.7719355175        6.6264979333       -3.6437424911
 H       -13.2919039697        3.8978124688       -3.9680417056
 H       -14.1559879291        2.4846113758       -3.4521709655
 H       -14.4102853569        3.2657087912       -5.0788629099
 H       -11.1016289842        2.6672575050       -3.6986014606
 H       -10.7232160166        1.1199120263       -4.4043524851
 H       -12.0311656000        1.2109129764       -3.1413282012
 H       -16.4612570740       -3.7424862547       -4.6791041760
 H       -15.5831179456       -5.2509739257       -5.0515380420
 H       -15.1030890588       -3.5881341361       -5.8110772284
 H       -14.2190344039       -5.5635823097       -2.8876725950
 H       -15.8121818060       -4.8092843945       -2.4310166077
 H       -14.2743519535       -4.2197621718       -1.6983187034
 H        -9.0853547601       -5.0331510149       -7.5483130455
 H       -10.0342854497       -5.5187820733       -6.0972782480
 H        -8.2866450171       -4.7889736238       -6.0325982115
 H        -7.7751262799       -2.3455178622       -6.7188638285
 H        -9.1739399496       -1.6143900951       -7.6489524376
 H        -8.3515780244       -3.0409563732       -8.2364228881
 H       -14.1509156192       -4.1864614684      -11.6847693994
 H       -13.7399269128       -5.9579321757      -11.9378675364
 H       -13.8609946454       -4.8539828290      -13.3310604886
 H       -11.9570609578       -5.9495381431      -14.0750153419
 H       -11.5331239634       -6.7158158862      -12.5707519382
 H       -10.3120698364       -5.6662180185      -13.3363592803
 H        -9.2695554361       -0.6918538238      -14.3137756541
 H        -7.9104236812        0.5181570367      -13.9418413384
 H        -9.6646221247        0.8400837606      -14.0570947813
 H        -8.7320319806       -2.5696210941      -12.1278350491
 H        -7.3249541903       -1.6941813796      -11.5021550246
 H        -7.5914805901       -1.6095650919      -13.2070522574
 H        -5.0233532989        0.8801861353       -4.8841105506
 H        -6.5731452660        0.0827111693       -5.0374834104
 H        -6.5465877307        1.8123472827       -4.8854027485
 H        -4.5163231401        2.6891722458       -6.2815033107
 H        -5.9251042728        3.4296657253       -7.0782703091
 H        -4.9236758066        2.4449427485       -8.0652107100
 H        -0.8284199803       -3.5233222162       -7.7883656851
 H         0.4730930658       -3.8922460328       -8.7595316808
 H        -1.0352845455       -3.2961260076       -9.5277771258
 H         1.1482799011       -0.3592026127       -7.0599224845
 H         2.2966533005       -1.5235416596       -7.7390338989
 H         1.1426054043       -2.2741841604       -6.8184222206
 H         5.3799400762        2.1135587526      -11.9520526179
 H         4.0149727183        2.0947221751      -13.2105658978
 H         5.7911593611        1.8730775518      -13.5999322457
 H         4.2177175623       -1.5447531869      -13.8524246435
 H         4.6794697649       -0.2052072313      -15.0402754895
 H         3.1369667216       -0.2557481764      -14.1082115356
 H         9.7261179458       -3.7762501750      -10.4571470426
 H         9.7952909570       -5.1804119605      -11.5490443192
 H         8.2735361708       -4.3672376416      -11.2797168309
 H        11.3222718633       -4.2582619049      -13.9055129646
 H        11.6085154350       -3.8953630435      -12.2930339232
 H        11.3714663959       -2.5598233725      -13.5880323576
 H         5.8770088385       -1.1999359636      -17.1723771707
 H         6.7817297295       -1.7332758246      -15.7170972940
 H         5.0946842905       -2.4083706626      -16.2132381460
 H         6.3183042115       -4.7270383236      -18.9836739910
 H         6.0532862189       -2.8848312756      -19.1952897824
 H         4.9451124356       -3.9590886351      -18.2180153131
 H        14.0108973862       -6.0847299800      -16.5689087491
 H        13.1033526420       -4.9399554634      -15.6938411316
 H        14.1551599770       -4.3093274931      -16.9425262784
 H        13.3236757484       -6.8215827875      -18.8904400452
 H        13.3695671361       -5.1226183161      -19.5528490001
 H        11.9337036085       -6.1739866785      -19.6387056514
 Na      -10.5978559340        0.1048417646       -7.0463606227
 Na       10.2535698064       -1.7819331290      -15.6808930589
