232

 C        10.9415860507       -7.6740089250      -17.6597035566
 C        11.3787190512       -6.4176622707      -16.9356995010
 O        11.1366123066       -6.2273516398      -15.7451156070
 C        12.2384650906       -5.2501598423      -17.7122171735
 C        11.3965714186       -3.9437498113      -17.7146250364
 O        11.5863160848       -3.1436013551      -16.8128334077
 C        10.3730025212       -3.6674473500      -18.8436353845
 C         8.9761246602       -4.0375404059      -18.4334893347
 C         8.2485405078       -2.9985860981      -17.6105938265
 O         8.7594923740       -1.8876530109      -17.4578329286
 C         6.7621982189       -3.3325796744      -17.3067445830
 C         6.8408650296       -4.5162787622      -16.1316017671
 O         7.3605916309       -5.5352414258      -16.5304549671
 C         6.1101648314       -4.4330676374      -14.6779873072
 C         7.2557089882       -4.6618116752      -13.6556490002
 C         8.5171781302       -3.8117655382      -13.9074836564
 O         8.8726255986       -3.5573896292      -15.0529577917
 C         9.4036467557       -3.3257899819      -12.6829740047
 C         9.0429641596       -1.7400850295      -12.6504706055
 O         9.5180957987       -1.0155535519      -13.5375110823
 C         8.3023920925       -1.2926779088      -11.4499416903
 C         7.1643333814       -0.3347376831      -11.7011775466
 C         6.0229963856       -0.8389122854      -12.5483817722
 O         6.1994977717       -1.9249895011      -13.1359846097
 C         4.6793033232        0.0963841526      -12.7883611827
 C         3.8543645535       -0.1504014265      -11.4953112092
 O         4.4171955721       -0.5081593966      -10.5159278128
 C         2.3485714421        0.0590854432      -11.4806096974
 C         1.6979712769       -0.1365049105      -10.0956068858
 C         0.6710724793       -1.2081695850       -9.9398690317
 O         0.1314670648       -1.7168485173      -10.8803745337
 C        -0.0234667616       -1.5470271959       -8.5338300013
 C        -1.2576474714       -0.5602086191       -8.2161771642
 O        -1.0707786638        0.6195013342       -8.1706020408
 C        -2.5603662665       -1.1057199775       -7.8632750655
 C        -3.5357001471       -0.0753262827       -7.3890269232
 C        -4.9920591944       -0.3989110876       -7.3578406553
 O        -5.5673604471       -1.4141170076       -7.6820011972
 C        -5.9017696091        0.8651601177       -6.9081999641
 C        -7.2888568611        0.9040864729       -7.5088249511
 O        -8.2959964767        0.7427182522       -6.8281223180
 C        -7.3761636054        1.3064517072       -8.9265238561
 C        -8.1424695944        0.3655847172       -9.7761518864
 C        -8.2689139577        0.8050263796      -11.2127881839
 O        -8.2357253321        1.9595510771      -11.5261510542
 C        -8.7707325586       -0.2970043614      -12.2562442111
 C       -10.2893289355       -0.6858673155      -11.8225042188
 O       -10.6189995958       -0.8617216821      -10.6422387230
 C       -11.4649722016       -0.7736198196      -12.8905801260
 C       -12.3535104077       -2.0935068252      -12.6610144086
 C       -11.3992945609       -3.2677228529      -12.8510290276
 O       -10.3733424919       -3.2652738385      -13.5211452523
 C       -11.9657663884       -4.6462976733      -12.2422905786
 C       -11.3416955678       -4.7195706835      -10.8146596581
 O       -10.1817391343       -5.0339509294      -10.7326860455
 C       -12.2802803197       -4.3472513577       -9.5241226179
 C       -11.4517589812       -4.5540534844       -8.2051043803
 C       -10.9234166002       -3.1804876452       -7.6587148628
 O       -11.4849723826       -2.1356869066       -8.0177076550
 C        -9.7059607948       -3.3005875379       -6.6162754139
 C       -10.2316135473       -2.7253220588       -5.2799573560
 O       -10.3068955435       -1.5065417113       -5.1746425371
 C       -10.5164178989       -3.5908304611       -4.0528956437
 C       -11.9304010487       -3.4850931444       -3.4357073312
 C       -13.0540964303       -3.8463878470       -4.3968418316
 O       -12.8145579514       -4.3387445796       -5.4608857013
 C       -14.5632748087       -3.6804045516       -3.8311538991
 C       -14.7224168754       -2.1385944240       -3.6396722482
 O       -14.6321538928       -1.5959472176       -2.5226973446
 C       -14.8107555061       -1.3049986294       -4.8585234419
 C       -14.4025592601        0.2045869637       -4.6106644806
 C       -13.1856684859        0.6809470366       -5.3376551629
 O       -12.5397231117       -0.0222408171       -6.0578791209
 C       -12.6922990035        2.1052238599       -5.0013673280
 C       -12.0730376586        2.7177363944       -6.2800004941
 O       -11.1994447038        2.1747324567       -6.9678826982
 C       -12.4611544059        4.1636914646       -6.7344901493
 C       -11.2335804327        4.9986290547       -7.0271023284
 C       -10.3813468208        5.2652912549       -5.7095409582
 O       -10.5781018680        4.5966212398       -4.7007892804
 C        -9.0795588410        6.1031081609       -5.8657483187
 C        -7.8195287281        5.1074536374       -5.7081175836
 O        -7.7655512085        4.0441361527       -6.2992840880
 C        -6.6369857665        5.6112966229       -4.8348091760
 C        -8.9250691165        6.8127142680       -7.1924760777
 C        -9.0076128165        7.1178287799       -4.6519353431
 C       -13.6658404337        2.9318413977       -4.2329679285
 C       -11.4506538107        1.7822378129       -4.1883772315
 C       -15.5270688386       -4.2839247012       -4.8327278088
 C       -14.7752011151       -4.2920425311       -2.3954848041
 C        -9.1371964567       -4.7755273077       -6.3803621422
 C        -8.5383401804       -2.3533432444       -7.2217694296
 C       -13.5055995842       -4.6570080611      -12.1315871690
 C       -11.4580153514       -5.7545818753      -13.2661557401
 C        -8.7074564669        0.2997777696      -13.7035278563
 C        -7.8719134880       -1.6008973706      -12.1285085598
 C        -6.0934335512        0.8520700258       -5.3131449163
 C        -5.1946357591        2.2470743286       -7.4546670294
 C        -0.2640198395       -3.0267762647       -8.5163666450
 C         1.0689409451       -1.2363587420       -7.3254857815
 C         5.0145244411        1.6628125092      -12.7876095628
 C         3.9066692640       -0.2215211200      -14.1114989405
 C         9.1776959272       -4.1664941981      -11.3478771317
 C        10.9531892581       -3.3775780549      -13.0990096458
 C         6.0204375407       -2.0544250630      -16.7373863229
 C         5.7581117759       -3.9734266066      -18.3372856766
 C        13.4901975710       -5.0420139271      -16.9242232063
 C        12.5752420238       -5.6544104093      -19.2340624766
 H        11.8364485335       -8.3553316386      -17.8915502947
 H        10.4885442818       -7.5379076428      -18.6669805783
 H        10.4299653430       -8.4499733780      -17.0005040506
 H        10.6448678006       -4.2402701132      -19.7501359471
 H        10.3135268126       -2.5871693143      -18.9859948879
 H         8.8613633467       -5.0455050926      -17.9740330744
 H         8.4822808628       -4.1453532161      -19.3813970014
 H         5.4143347176       -5.3542045943      -14.5497623416
 H         5.6798689869       -3.4047219965      -14.5189125815
 H         7.5848514493       -5.7787739731      -13.8758529392
 H         6.9346404956       -4.6725770489      -12.7012665200
 H         9.0489463742       -0.7033436628      -10.7808073668
 H         7.9777384296       -2.1591861147      -10.8318195897
 H         7.3575027853        0.5956649857      -12.1762582425
 H         6.7550596239        0.0919813289      -10.7840306679
 H         1.8637340268       -0.6605883743      -12.1586091386
 H         2.0290485648        0.9852188095      -11.8260964592
 H         1.2172090740        0.8091389172       -9.7225259874
 H         2.4600998062       -0.3953898002       -9.3556998468
 H        -2.4038633641       -1.8242443769       -6.9961095859
 H        -2.8725017955       -1.7057738067       -8.6912176185
 H        -3.4918560981        0.8668216775       -8.0272477440
 H        -3.2768262639        0.3514422421       -6.4067686636
 H        -6.4211462583        1.4985857036       -9.2847268531
 H        -7.8819803323        2.3340276579       -8.8371252542
 H        -9.1418574607        0.2430018569       -9.2822364867
 H        -7.6791131353       -0.6628804051       -9.5746260191
 H       -11.0302172257       -0.8727682133      -13.8982127379
 H       -12.1153336740        0.1175625582      -12.8384910493
 H       -13.0841495509       -2.1081436112      -13.5179594485
 H       -12.8116019182       -2.1486194654      -11.6798599052
 H       -13.2431526368       -4.9044990521       -9.3539538248
 H       -12.5499522580       -3.2945683855       -9.5300074071
 H       -10.6390982099       -5.2156026639       -8.3924276920
 H       -12.2225152100       -4.9375824406       -7.5193156296
 H        -9.7482742592       -3.3972706299       -3.2870541531
 H       -10.3973788133       -4.6852722619       -4.3679897528
 H       -12.0198051485       -2.5071515048       -3.0709794824
 H       -11.9271936207       -4.0475140951       -2.4889013069
 H       -15.8795019661       -1.3819690556       -5.0312590145
 H       -14.2506436990       -1.5024994952       -5.7159033891
 H       -14.3871667309        0.3942399325       -3.5335133466
 H       -15.2880495161        0.7420865545       -4.8739361723
 H       -13.1262194935        4.7089485573       -6.0263172212
 H       -13.1236608866        3.9863165745       -7.6326074948
 H       -11.5809206539        5.9032193057       -7.5226622157
 H       -10.5968354168        4.5062962949       -7.7490464433
 H        -6.1591008751        6.2531158935       -5.5516522474
 H        -5.9223180718        4.8350106541       -4.6228073045
 H        -6.8304020984        6.1553687795       -3.8675580361
 H        -9.8327617594        7.2958666239       -7.4569019818
 H        -8.6597406730        6.1676411701       -8.0557398126
 H        -8.1080055368        7.5821135941       -7.1391363691
 H        -9.7270353262        7.8987282285       -4.9723582517
 H        -8.0897477588        7.6828199995       -4.4774262669
 H        -9.1575424815        6.6492183798       -3.6937336367
 H       -13.2114940886        3.9444220329       -4.0062468076
 H       -13.8410467572        2.5961302765       -3.2298427564
 H       -14.5891349999        3.1900449709       -4.7523790506
 H       -10.8934443510        2.6506215435       -4.0262092894
 H       -10.7780490885        1.1613823416       -4.8109548769
 H       -11.7034930036        1.2932058790       -3.2600492471
 H       -16.5738465225       -3.9233164162       -4.6980005958
 H       -15.4582954305       -5.3044537757       -4.5268754660
 H       -15.0922436555       -4.0582291436       -5.8181309158
 H       -14.4906737144       -5.3502261058       -2.3878583911
 H       -15.8210274370       -4.0945274222       -2.0874687291
 H       -14.2004941566       -3.7638010048       -1.6394421211
 H        -8.4169097287       -5.0373734563       -7.2047593708
 H        -9.9187427123       -5.4405764456       -6.2752772271
 H        -8.5640501687       -4.8519296261       -5.4700255908
 H        -7.7671438943       -2.3165738744       -6.3855827748
 H        -8.8592367217       -1.3994483414       -7.6173585798
 H        -8.0089865623       -2.9915823499       -7.9062552616
 H       -13.8679732092       -3.8687792944      -11.5664204693
 H       -13.6944961759       -5.4996285635      -11.5469494261
 H       -13.9678013625       -4.6525593153      -13.0975591260
 H       -12.3404108158       -6.0656230642      -13.8649945504
 H       -11.0653857368       -6.5998272260      -12.7555176749
 H       -10.7870986275       -5.2555299605      -13.9588387776
 H        -9.1175492782       -0.3765324377      -14.4183406218
 H        -7.6679138253        0.5877740084      -13.8227390719
 H        -9.3953666597        1.1580945231      -13.8362927735
 H        -8.4689358841       -2.4529182582      -12.3631740479
 H        -7.4203537867       -1.7274510643      -11.1381339320
 H        -7.0481286185       -1.4814083908      -12.8419728565
 H        -5.2595530107        0.3220741332       -4.8922526247
 H        -7.0545240959        0.3485167162       -5.0421542237
 H        -6.1402930254        1.9034015206       -5.0376602286
 H        -4.3655942262        2.4444377708       -6.8068928111
 H        -5.9052446280        2.9984658838       -7.2206263510
 H        -5.0716800024        2.4286517036       -8.5038061092
 H        -0.6251726178       -3.3414698725       -7.4583352042
 H         0.5841772242       -3.7071726726       -8.7100722115
 H        -1.0365868743       -3.3013126621       -9.2776095470
 H         0.4699455906       -0.7728859728       -6.5274334105
 H         1.7514565472       -0.4447967392       -7.4698860529
 H         1.6805614265       -2.0872061804       -6.9940824669
 H         5.4138033121        1.8733878922      -11.7422104475
 H         4.1282974181        2.1925256641      -12.8842587267
 H         5.8658977932        1.9308582031      -13.4638012873
 H         4.2410067363       -1.1908645161      -14.4958618789
 H         4.2566721674        0.6162612455      -14.7128645730
 H         2.8029052007       -0.2196198226      -13.9782351351
 H         9.8647572447       -3.6605979355      -10.6624299741
 H         9.5733749497       -5.1175738022      -11.4200422761
 H         8.0830117330       -4.1868711443      -10.9443961799
 H        11.1018352040       -4.4368241063      -13.4678234078
 H        11.6340170162       -3.3440512674      -12.2928934055
 H        11.2856328029       -2.7452509630      -13.8939182635
 H         6.3242197480       -1.2063828404      -17.3928937518
 H         6.3516088389       -1.8478387882      -15.7555425380
 H         5.0124382549       -2.1486618180      -16.8636180985
 H         6.2570493255       -4.8482429980      -18.6466385044
 H         5.4533994037       -3.2324377435      -19.1058518653
 H         4.9092263962       -4.4062057226      -17.8130053496
 H        13.9937165897       -5.9638903422      -16.8476121711
 H        13.2743497413       -4.6437861803      -15.9540184301
 H        14.0170515699       -4.2100517741      -17.3362039049
 H        13.4928041296       -6.1228471756      -19.3296895426
 H        12.6367489377       -4.8478575195      -19.9876536556
 H        11.8909279464       -6.3354782070      -19.6762513955
 Na      -10.5840553974       -0.0229999901       -7.0019930001
 Na       10.2395145201       -1.7503123839      -15.5912638498
