232

 C        11.0950170470       -7.6264357354      -17.7055506135
 C        11.3805684542       -6.3335681936      -17.0464031098
 O        11.0685849321       -6.1754080262      -15.8759782776
 C        12.2379992374       -5.1979805655      -17.8400304963
 C        11.3747306043       -3.9345023386      -17.8027460690
 O        11.5918036247       -3.0890291129      -16.9016938106
 C        10.3280520292       -3.6699900235      -18.8987433321
 C         8.8637560259       -4.0665249535      -18.4655133320
 C         8.1178049552       -2.9889984549      -17.7090450541
 O         8.6215032314       -1.9879840281      -17.2717563278
 C         6.7197224807       -3.3698526160      -17.1934153490
 C         6.7939588331       -4.5637685039      -16.1402566056
 O         7.2167261263       -5.6274475646      -16.4854427878
 C         6.3070241139       -4.4000536385      -14.7968033185
 C         7.3700537135       -4.8080301020      -13.7322523704
 C         8.5002317717       -3.8270683385      -13.8777226041
 O         8.8150778640       -3.5117866867      -14.9856163274
 C         9.3689220224       -3.2691472480      -12.6751059577
 C         9.1162805393       -1.7498293904      -12.5574367555
 O         9.4875363126       -1.0205230831      -13.4588705561
 C         8.2816562729       -1.1038132508      -11.4039292534
 C         7.1223486462       -0.1687792445      -11.8470911922
 C         5.9886622520       -0.8040513973      -12.7449619777
 O         5.9779417527       -1.9783971434      -13.0962569684
 C         4.7941425321        0.1075007494      -12.8123675865
 C         3.7848473953       -0.2080931185      -11.4016929849
 O         4.3806169062       -0.5089147648      -10.3651389388
 C         2.2483712680       -0.0330230187      -11.3977063187
 C         1.6879688263       -0.0072919654       -9.9382183567
 C         0.5597698314       -1.1080359076       -9.8302566543
 O         0.1544208790       -1.6533073297      -10.8496669540
 C         0.0031034802       -1.4697156680       -8.4215790188
 C        -1.2281203579       -0.5077552546       -8.1894753734
 O        -1.1431001221        0.6902258967       -8.2715236708
 C        -2.6009099063       -1.3294127178       -7.8919430333
 C        -3.4786886323       -0.2008649603       -7.3727378143
 C        -5.0592225325       -0.3774216822       -7.4079375923
 O        -5.5092391684       -1.4343766671       -7.6826943806
 C        -5.8909973220        0.9573400757       -6.8138663091
 C        -7.3577186391        1.1068947040       -7.5013253035
 O        -8.3632610949        0.7666731138       -6.8780548501
 C        -7.3150033715        1.2968814294       -9.0475103793
 C        -8.2069701471        0.2638739910       -9.7537481685
 C        -8.3182770399        0.7292072137      -11.1607681365
 O        -8.0433003757        1.9327899504      -11.4143949395
 C        -8.7820916350       -0.2428700430      -12.1993293215
 C       -10.2393803586       -0.5616649383      -11.7886213327
 O       -10.5466364125       -0.7459789831      -10.6533264838
 C       -11.3118253911       -0.7096678431      -12.9426058252
 C       -12.1771638376       -1.9028305710      -12.8040535323
 C       -11.4356147849       -3.2495502495      -12.9062207313
 O       -10.3792970624       -3.2372986808      -13.5592534761
 C       -12.0838835941       -4.6037957196      -12.2148580917
 C       -11.3623271979       -4.8562509503      -10.7539997325
 O       -10.1668342636       -5.0739276937      -10.7136598118
 C       -12.1668493024       -4.4616328119       -9.5767201440
 C       -11.4420486032       -4.6496349946       -8.2158916435
 C       -10.8494789213       -3.3383196042       -7.6883446792
 O       -11.3457834636       -2.2295874370       -7.9182429865
 C        -9.6478500602       -3.3731630566       -6.6376570602
 C       -10.2229808857       -2.6865393035       -5.3200097031
 O       -10.4361025572       -1.5019626894       -5.1188046293
 C       -10.5668809149       -3.6593650822       -4.0563732840
 C       -11.9632431897       -3.4565956619       -3.4551821912
 C       -13.0778670481       -3.8822175404       -4.3133969876
 O       -12.9296961492       -4.3482108190       -5.4582746426
 C       -14.5074426798       -3.6867593059       -3.7816254417
 C       -14.6905772620       -2.0168235787       -3.5970285487
 O       -14.5901299688       -1.6114859049       -2.4680406416
 C       -14.9171126699       -1.2031693677       -4.9189814807
 C       -14.4942738303        0.2837595699       -4.7360738991
 C       -13.1861060657        0.6823825314       -5.3558445022
 O       -12.5938708187       -0.1098534284       -6.0567254556
 C       -12.5456695795        2.1357705479       -4.9663689556
 C       -12.0723530479        2.6893413747       -6.3247594075
 O       -11.3511912458        2.0929769559       -7.1068932501
 C       -12.5286905471        4.1439778112       -6.7247140833
 C       -11.2313081010        5.0012811493       -7.0072698235
 C       -10.3184013868        5.2168677668       -5.8052289201
 O       -10.7017824806        4.7084467417       -4.7496682628
 C        -9.0608486896        6.0475112622       -5.8900113460
 C        -7.7900417052        5.0545017432       -5.6706529679
 O        -7.7964628446        4.0067489886       -6.2843138277
 C        -6.5748859846        5.4693943003       -4.8837505776
 C        -8.8688970531        6.7265756697       -7.2609063236
 C        -9.1566032346        7.1536479996       -4.7792714116
 C       -13.5851483488        2.9753775098       -4.0911148149
 C       -11.3653665309        1.9136974662       -4.0043557843
 C       -15.4791275235       -4.3958988083       -4.7573627439
 C       -14.7285510669       -4.1677072692       -2.3515017986
 C        -9.0610967638       -4.7610312831       -6.4957860910
 C        -8.4397140162       -2.5391556195       -7.1473851502
 C       -13.6137698950       -4.6366213414      -12.1629098499
 C       -11.5248622858       -5.8601650511      -13.0116946261
 C        -8.5493212213        0.3065128970      -13.6362309638
 C        -7.9123795780       -1.6035759878      -12.3141875036
 C        -5.8134815567        0.8131013681       -5.3428408534
 C        -5.0309139284        2.2011306403       -7.2490444014
 C        -0.4043122492       -2.9706380280       -8.4156179194
 C         1.0484144848       -1.1253456998       -7.2733733976
 C         5.1046209253        1.6131539026      -12.7040454425
 C         3.9745442517       -0.1846119638      -14.1387321704
 C         9.0804868459       -4.0671862919      -11.4404847414
 C        10.8174346643       -3.4310461157      -13.0994957317
 C         6.0447340379       -1.9275199059      -16.7673880734
 C         5.8583333497       -4.0181752580      -18.2779865916
 C        13.5243976544       -5.0470161849      -17.0877619827
 C        12.5707354819       -5.6675435500      -19.3060285039
 H        11.9766969229       -8.0857831025      -18.2314794946
 H        10.4166297119       -7.4666071942      -18.5580221104
 H        10.8498767595       -8.4834260190      -17.0302885235
 H        10.6382652013       -4.2498984329      -19.7655140511
 H        10.3081013907       -2.6003226037      -19.0771159629
 H         8.8055673864       -4.9709938603      -17.7376351134
 H         8.3134708056       -4.4960564821      -19.3108803863
 H         5.4693562762       -5.0730946961      -14.6863853499
 H         6.1373130802       -3.2912038228      -14.6540711749
 H         7.6927234235       -5.8726980416      -13.9650728420
 H         6.9097132438       -4.8037416920      -12.7294684251
 H         8.9362933441       -0.5408706835      -10.7045043005
 H         7.7944873011       -1.9177359947      -10.8002474797
 H         7.2724393071        0.8393191285      -12.2303876293
 H         6.5684742505        0.1814802502      -10.9586595491
 H         1.6844978563       -0.7973824296      -11.9423157034
 H         1.9844998582        0.9082053713      -11.9091868155
 H         1.2041884448        0.9380660438       -9.6339788173
 H         2.5016070877       -0.2301944448       -9.1698379588
 H        -2.4277144405       -2.1892971185       -7.1976462571
 H        -2.9531899255       -1.7576540055       -8.8844589350
 H        -3.1711018998        0.6871069167       -7.8734686051
 H        -3.2455244354        0.0376625784       -6.3364381058
 H        -6.3063798585        1.2802318697       -9.3726511426
 H        -7.5957282728        2.2859910965       -9.2280446243
 H        -9.0560317756        0.0881249297       -9.1725495297
 H        -7.7016256187       -0.6554913001       -9.7173533237
 H       -10.8923711275       -0.6658316556      -13.9342521974
 H       -11.9990840006        0.1346510301      -12.7985504081
 H       -12.8711247903       -1.8207848781      -13.6012002577
 H       -12.6859810026       -1.7972208422      -11.7786234835
 H       -13.0189820134       -5.1248815854       -9.4581568081
 H       -12.5459375829       -3.4514284765       -9.6726617500
 H       -10.6291137208       -5.3771010595       -8.3378360029
 H       -12.2876632147       -4.9781903969       -7.5305469978
 H        -9.8528808873       -3.3619263038       -3.2738432957
 H       -10.4469035555       -4.7557658864       -4.2191083660
 H       -12.0576186244       -2.4147856794       -3.0526614501
 H       -11.9467955030       -4.0605828018       -2.5887326623
 H       -15.9234439567       -1.3752876173       -5.2239872177
 H       -14.1970719698       -1.4136767852       -5.7251103040
 H       -14.4046644102        0.4448567753       -3.6625985721
 H       -15.4300997678        0.8679543297       -4.9229666934
 H       -13.0177402288        4.5580764024       -5.8314357179
 H       -13.2381863164        4.1292857059       -7.4724054999
 H       -11.5231080307        5.9616760395       -7.4997412246
 H       -10.5766501498        4.5021390232       -7.8250741379
 H        -5.8548767804        5.9923287010       -5.4739625738
 H        -6.1041055436        4.5210363948       -4.4885561678
 H        -6.8514144898        6.0740019410       -4.0343225725
 H        -9.8475584268        7.1229152714       -7.6158554055
 H        -8.5510482657        6.0313844641       -8.1221446782
 H        -8.1849190663        7.5537163806       -7.2409372014
 H        -9.8641410742        7.9037344540       -5.1382212704
 H        -8.1734707497        7.6263059881       -4.6391806049
 H        -9.3521699763        6.8285060129       -3.7643195053
 H       -13.1768078799        3.8475260326       -3.7067454503
 H       -13.8039841340        2.4547072034       -3.1481867180
 H       -14.4604856893        3.2454981658       -4.5550058925
 H       -11.0604469138        2.9060192356       -3.7507902830
 H       -10.4968027706        1.4419111401       -4.3834812881
 H       -11.7513656621        1.4355482447       -3.1082976736
 H       -16.4764753480       -4.1464185449       -4.5067017847
 H       -15.2760671146       -5.4520407390       -4.5425690948
 H       -15.1957728008       -4.0914892449       -5.7230623703
 H       -14.6508171802       -5.1949513168       -2.2610293666
 H       -15.6685897222       -3.7731914066       -1.9856496575
 H       -14.0259499628       -3.6932533690       -1.6906198110
 H        -8.7300391626       -5.0422973981       -7.4451521980
 H        -9.7538025081       -5.4520851899       -5.9442851940
 H        -8.1856640147       -4.7162918165       -5.9036240634
 H        -7.8662018406       -2.4216183829       -6.3326127255
 H        -8.7297414383       -1.5744333839       -7.5733734923
 H        -7.7933033501       -3.1974509003       -7.7517999410
 H       -14.0344395973       -4.0053168414      -11.3884767283
 H       -13.8107930063       -5.6832986362      -11.8227252290
 H       -14.0030827594       -4.3522845864      -13.0933669488
 H       -12.2554173578       -6.3640543186      -13.6998405087
 H       -11.1546881244       -6.5667075952      -12.2542977454
 H       -10.7723492079       -5.4227066971      -13.6568697059
 H        -8.7180038668       -0.4936131160      -14.3534961384
 H        -7.4958846805        0.6325605951      -13.5944013547
 H        -9.1978011921        1.1001520569      -13.9566017896
 H        -8.5088738961       -2.1871030795      -13.1234293404
 H        -7.6867159040       -2.1701279987      -11.4776866357
 H        -6.9828453896       -1.2690493968      -12.7559612904
 H        -4.7927914149        0.4357068464       -5.0917019026
 H        -6.5732937852        0.0499120221       -5.0608753303
 H        -6.0550543033        1.7951934073       -4.9115327937
 H        -4.1524978892        2.2134790201       -6.6539870310
 H        -5.6330266295        3.1157525296       -7.0694602603
 H        -4.8881847624        2.2716881727       -8.3116290215
 H        -0.8506554944       -3.3891768128       -7.5021163489
 H         0.3210661714       -3.6935616963       -8.7097185465
 H        -1.1268176862       -2.9898982807       -9.2550207013
 H         0.5759532348       -1.3687746007       -6.3097502906
 H         1.2065318978       -0.0794014847       -7.1720760209
 H         2.0218638524       -1.6088614131       -7.3456514029
 H         5.6154898566        1.9652493360      -11.8734685783
 H         4.0716854408        2.0799037589      -12.6668280245
 H         5.6932832252        1.8614565964      -13.5703872192
 H         4.2014959244       -1.2028009719      -14.3584090724
 H         4.4356858703        0.4972413458      -14.8621962270
 H         2.8971384968       -0.0231606205      -14.0274329625
 H         9.8241910411       -3.7958977370      -10.7042718831
 H         9.3839795167       -5.0981450573      -11.7052577234
 H         8.0512047415       -4.0416874914      -11.0738768905
 H        11.0412130983       -4.4654159099      -13.1877269321
 H        11.5789858924       -3.0313083875      -12.3760411356
 H        11.0630785646       -2.9503657044      -14.0684995794
 H         6.3274315352       -1.2171412625      -17.5980868197
 H         6.4996054060       -1.5830407693      -15.8594363201
 H         4.9638856239       -1.9958065625      -16.7626868590
 H         6.4614706268       -4.9003483086      -18.4614923517
 H         5.7801551914       -3.2690920899      -19.1241013979
 H         4.9187930204       -4.3467788554      -17.9882509107
 H        14.0218970366       -6.0028978719      -17.1039149870
 H        13.3497341138       -4.6646857707      -16.0275297946
 H        14.0873462276       -4.1636662002      -17.4772405526
 H        13.4038279559       -6.3508430351      -19.4479537616
 H        12.9659018098       -4.7575161742      -19.7785450202
 H        11.8099730825       -5.9220245359      -19.9762532344
 Na      -10.4829579967       -0.1528784689       -7.0255829871
 Na       10.1492756168       -1.7174573979      -15.6372715087
