232

 C        11.3248596863       -7.6692155722      -17.8794825427
 C        11.4295415673       -6.2421343569      -17.3557758324
 O        10.8896921241       -5.7741774234      -16.3218770392
 C        12.1993385874       -5.0948695267      -18.1636681365
 C        11.3906289639       -3.7454270285      -17.9725304063
 O        11.6391310422       -3.1690822387      -16.9152594785
 C        10.1625529810       -3.5150979360      -19.0099649101
 C         8.8670438349       -4.1205482812      -18.4855909365
 C         7.9475683726       -3.1149020058      -17.7272816952
 O         8.3570831729       -2.0012360092      -17.5303873426
 C         6.4902467759       -3.4799976556      -17.2286229063
 C         6.7280920467       -4.7768954781      -16.2142367941
 O         7.0828844900       -5.8591537212      -16.5930931212
 C         6.1270208102       -4.6551329424      -14.7681422799
 C         7.2660419890       -4.7968425828      -13.7654938529
 C         8.4802124741       -3.8076999777      -13.8494369547
 O         8.8395500839       -3.4013525731      -14.9189785379
 C         9.3024949230       -3.3165368020      -12.5687129323
 C         8.9813135220       -1.7711473781      -12.7066609211
 O         9.4517778371       -1.1579457846      -13.6452322164
 C         8.1859038200       -1.1710077935      -11.5235595332
 C         7.3202231019        0.0685780452      -11.9672552671
 C         5.9889270034       -0.4882657079      -12.6607159421
 O         5.9287660520       -1.7179859541      -12.7157602569
 C         4.5929916219        0.2964231537      -12.6194307377
 C         3.8192851070       -0.0969570919      -11.2196450588
 O         4.3722630326       -0.4718303486      -10.1961450326
 C         2.2668524535        0.0497935320      -11.2488750198
 C         1.6266110491        0.1038873461       -9.8902433862
 C         0.6401895300       -1.1191979002       -9.7589786959
 O         0.1167435036       -1.6859795848      -10.7220677582
 C         0.1056233875       -1.4134163986       -8.3419288266
 C        -1.2403282848       -0.6112010685       -8.3475167650
 O        -1.1052221479        0.5536668315       -8.4945085526
 C        -2.6117772013       -1.1730154856       -8.0743756096
 C        -3.3482198233       -0.1913708479       -7.1668992760
 C        -4.9131256131       -0.1484712388       -7.2813116499
 O        -5.5622992910       -0.9756243988       -7.8229753296
 C        -5.7579099410        1.0634817356       -6.5098051578
 C        -7.1974243829        0.9159793288       -7.1757073759
 O        -8.2504282981        0.5471511260       -6.6441701695
 C        -7.0795873670        1.1557529288       -8.7503929851
 C        -7.9166495770        0.3048104896       -9.6931534582
 C        -8.0968646089        0.8017141474      -11.2101852233
 O        -7.5068530484        1.8259443741      -11.5292307036
 C        -8.7646469716       -0.1413667490      -12.3246697232
 C       -10.2255755826       -0.5552608325      -12.0665076810
 O       -10.7032957189       -0.6876735859      -10.9521479954
 C       -11.1449091122       -0.8992398906      -13.2950274533
 C       -12.0843760157       -1.9810969120      -12.7645226005
 C       -11.3629733964       -3.2996118935      -12.8715569211
 O       -10.3560719007       -3.4647147402      -13.5571007827
 C       -12.0850980352       -4.5620639355      -12.1786137736
 C       -11.4305344436       -4.6942449457      -10.7023786367
 O       -10.2489933129       -4.9422974129      -10.6321824364
 C       -12.1817633816       -4.3890008453       -9.4192798974
 C       -11.3350939953       -4.7785284383       -8.2450446775
 C       -10.5713706118       -3.5207406306       -7.7017128286
 O       -10.8282298689       -2.3766675529       -8.0687588335
 C        -9.4745720977       -3.6580539427       -6.5921843788
 C       -10.2537188843       -3.0946358247       -5.3157887463
 O       -10.3523682740       -1.8830566025       -5.2134047339
 C       -10.5959572314       -3.9785041925       -4.0296019928
 C       -11.8114902344       -3.3251048942       -3.3745733072
 C       -13.0411033565       -3.7779827042       -4.2493506450
 O       -12.9092852728       -4.3375750398       -5.3214767304
 C       -14.5634520287       -3.3972139402       -3.6257497862
 C       -14.6273491698       -1.8846502668       -3.5758391312
 O       -14.3887408112       -1.3096389976       -2.5378842448
 C       -15.0406662680       -1.1486294230       -4.8427166405
 C       -14.6701888097        0.3540042757       -4.7852506832
 C       -13.3167157862        0.6050751945       -5.3773457377
 O       -12.5844564048       -0.2198106386       -5.8487010480
 C       -12.6767581609        1.9935016147       -5.0100627811
 C       -12.1762123774        2.5541009491       -6.3238373936
 O       -11.5245672368        1.8415263628       -7.1004892153
 C       -12.5234239198        4.0192258973       -6.7022417745
 C       -11.1647316526        4.7292767473       -7.1453179430
 C       -10.3611461061        5.2323845303       -5.8998425722
 O       -10.7852087984        5.0602084126       -4.7560566702
 C        -9.0613771120        6.0015536045       -6.0550094609
 C        -7.9545797997        4.9734379124       -5.7993116122
 O        -7.9156021067        3.8603454773       -6.3209230645
 C        -6.8667117732        5.3302095405       -4.7922465250
 C        -8.7103840578        6.4824848640       -7.5328987427
 C        -8.9027646120        7.2576132577       -5.0693477373
 C       -13.4034723079        2.9244720732       -4.0038412163
 C       -11.3501016969        1.6365959868       -4.2905290545
 C       -15.6678684991       -4.0729743304       -4.5069747499
 C       -14.5496847848       -4.0498053105       -2.2488367888
 C        -8.9350597052       -5.1360868526       -6.3578286234
 C        -8.2481986935       -2.8185313500       -6.9625898685
 C       -13.6085685728       -4.3338327566      -12.0218504162
 C       -11.7031374219       -5.7911752499      -13.0612842688
 C        -8.4993732714        0.5063007993      -13.7805206406
 C        -7.9855460186       -1.5359797781      -12.3365145986
 C        -6.0064091636        0.6860788108       -4.9982224301
 C        -5.1062037787        2.4512617514       -6.7127166602
 C        -0.0650319239       -2.9218208603       -8.3051172115
 C         0.8703024080       -1.0600789296       -7.1064905923
 C         4.7388731889        1.8333990176      -12.5980835565
 C         3.7041630087       -0.2650643131      -13.7632005045
 C         8.8995972208       -3.9779280830      -11.2116830430
 C        10.8390520136       -3.5368588012      -12.7155223602
 C         5.6793857931       -2.3033690464      -16.6190180905
 C         5.7351790106       -3.9015781659      -18.6152533072
 C        13.6098255575       -4.8519926055      -17.3988208632
 C        12.5766908642       -5.3603238470      -19.6018930776
 H        12.3063941576       -8.0295959446      -18.2319724737
 H        10.7666114895       -7.8613640096      -18.7524835825
 H        11.0833926761       -8.3290293420      -17.0249746690
 H        10.4891109151       -3.9215575923      -20.0004950921
 H         9.9963837754       -2.4275392866      -19.0842758820
 H         9.0531227149       -5.0341949991      -17.9018962435
 H         8.2859507721       -4.6011194721      -19.2107293349
 H         5.4824773084       -5.5614635145      -14.7313877182
 H         5.8313199250       -3.5742439134      -14.5775477181
 H         7.7792581299       -5.7696284435      -14.0548779969
 H         6.8679941901       -4.8663783591      -12.8124495013
 H         8.9705901041       -0.8141034893      -10.8090106873
 H         7.5474122315       -1.9588362125      -11.1254650637
 H         7.9119439609        0.7248373133      -12.5710923844
 H         6.8293315128        0.7356484258      -11.2520630847
 H         1.8179799002       -0.7937477845      -11.8326940237
 H         1.9809805845        0.8768319724      -11.8207348064
 H         1.0428060125        1.0103150920       -9.6841792192
 H         2.4513005922        0.0263940342       -9.2111743827
 H        -2.4706711465       -2.1948784610       -7.6988269722
 H        -3.0393758240       -1.2436532280       -9.0189736001
 H        -2.9491933627        0.8782579729       -7.2631503112
 H        -3.1906725142       -0.5035723343       -6.1018676158
 H        -6.0368743845        1.2253873218       -9.0656380132
 H        -7.4008618276        2.2822543744       -8.8826852145
 H        -8.8833634926       -0.0822966463       -9.1634715046
 H        -7.3479663541       -0.7256891649       -9.7890944723
 H       -10.6893080706       -1.1628723112      -14.2524062515
 H       -11.6125898716        0.1058585565      -13.3504759752
 H       -13.0104123983       -2.0812813469      -13.3968839044
 H       -12.3557868821       -1.6641216573      -11.7532722911
 H       -13.0588798689       -5.1059179592       -9.4099306147
 H       -12.4998675646       -3.3664547314       -9.2617806904
 H       -10.6660329678       -5.5105087868       -8.5869481849
 H       -11.9721176171       -5.0629664938       -7.3951241155
 H        -9.7011034747       -3.8226187763       -3.4394045963
 H       -10.8113627170       -5.0602325598       -4.2873462423
 H       -11.6727417078       -2.2551004753       -3.4441253260
 H       -11.8292095624       -3.6205905106       -2.3028057273
 H       -16.1262487491       -1.2674031406       -4.8869945044
 H       -14.5563431507       -1.7114694067       -5.6335162339
 H       -14.9879059429        0.6449001764       -3.7988464510
 H       -15.4693716423        0.8102140756       -5.3341394563
 H       -12.9958190841        4.5297614377       -5.7800133201
 H       -13.2623427132        4.0082884700       -7.5716238032
 H       -11.3891144796        5.6276309867       -7.6369842604
 H       -10.6325701928        4.2002814306       -7.8800921503
 H        -6.2147895982        5.9754073829       -5.3408968305
 H        -6.3036073264        4.4217676909       -4.4770964691
 H        -7.1614415882        6.0044066597       -3.9740035244
 H        -9.0639039861        7.3771790184       -7.9041955230
 H        -8.9302845061        5.7708222394       -8.3438722458
 H        -7.6637310224        6.6897866627       -7.4401166910
 H        -9.7630673247        7.9494656313       -5.1863914875
 H        -7.8724337537        7.6332581119       -5.2376174343
 H        -8.9635426181        7.0679074717       -3.9904764087
 H       -12.8339649154        3.8395757463       -3.6619199089
 H       -13.6915258319        2.3602279166       -3.0307096644
 H       -14.4131220151        3.2609779176       -4.3472433521
 H       -10.7374207342        2.5089490533       -4.1688613760
 H       -10.7416480918        0.8847022038       -4.8575590265
 H       -11.6103712419        1.1824764585       -3.3040470924
 H       -16.5337583154       -4.0473283863       -3.8175780002
 H       -15.2827017860       -5.0850273934       -4.7404454970
 H       -15.8760066424       -3.5232093413       -5.4425755009
 H       -14.2369904761       -5.1025762528       -2.2567489538
 H       -15.5782234999       -4.0272140715       -1.7256233162
 H       -13.8868934851       -3.4345966094       -1.5840017797
 H        -8.1423886786       -5.2691849151       -7.1118828028
 H        -9.7715982484       -5.8116342389       -6.5812331680
 H        -8.5770763657       -5.3578272568       -5.3394393096
 H        -7.5596577648       -2.8349245357       -6.1426188008
 H        -8.5687980530       -1.7485568521       -7.1466125554
 H        -7.7739740048       -3.4444055754       -7.7759713425
 H       -13.8388221326       -3.3704668895      -11.6210109440
 H       -13.9328882678       -5.0859986323      -11.2787347285
 H       -14.1192580963       -4.4619398825      -12.9602307395
 H       -11.4779937298       -5.3870047827      -14.0488986750
 H       -12.3940121634       -6.5772196287      -13.0377652858
 H       -10.7220934927       -6.0393168632      -12.7806696511
 H        -8.8403709934       -0.1900084695      -14.5375328359
 H        -7.3980709913        0.5386336771      -13.9723948390
 H        -8.8809494492        1.5517409279      -13.8631108202
 H        -7.9857694930       -1.9042501500      -13.4112603331
 H        -8.4133660968       -2.2070126499      -11.6649598835
 H        -6.9782543873       -1.4077430210      -11.9573692257
 H        -5.2083985923        1.1017638691       -4.4576389566
 H        -6.0077419443       -0.4044267385       -4.9608401783
 H        -6.9342848751        1.0700981341       -4.6518547963
 H        -4.1160783448        2.5128166797       -6.2644783300
 H        -5.7948680045        3.2925921197       -6.5222122589
 H        -4.8950315913        2.4532960177       -7.8184098069
 H        -0.6189612238       -3.3108117615       -7.3808073495
 H         0.9043447990       -3.3708740815       -8.3547565656
 H        -0.4925019596       -3.4557635644       -9.1960230527
 H         1.5990532994       -1.8706025199       -6.8130571346
 H         0.1867859063       -0.6793090833       -6.3246997930
 H         1.6258850353       -0.2297495190       -7.1789785102
 H         4.7062555147        2.1241310921      -11.5513253093
 H         3.8000862022        2.2871605873      -12.9674085930
 H         5.6217507437        2.2704923009      -13.1386102172
 H         3.1260882867       -1.0910750801      -13.4028905191
 H         4.4122156955       -0.6644584229      -14.4897535084
 H         3.1010950385        0.5708713448      -14.1401116562
 H         9.2569295792       -3.3071623013      -10.4394086340
 H         9.2504644254       -4.9683839811      -11.0875805906
 H         7.7592711453       -3.9859235234      -11.1395046072
 H        11.0634001769       -4.5995422825      -12.6433073947
 H        11.4742296506       -2.9486439697      -12.0990650087
 H        11.1617365049       -3.1360984762      -13.6768716611
 H         5.4764879416       -1.5940939765      -17.4767763208
 H         6.1885850046       -1.8402524935      -15.8231297291
 H         4.8291990405       -2.7665418323      -16.2767698489
 H         5.9287663536       -4.9420390967      -18.7738206871
 H         6.0575646634       -3.1829956859      -19.4459438576
 H         4.7243937278       -3.6538949654      -18.4875837906
 H        14.1615305313       -5.7097307360      -17.5400158943
 H        13.5558224035       -4.5777179005      -16.3573358984
 H        14.1441274097       -4.0740216802      -17.9096181306
 H        13.3054431845       -6.1402583446      -19.6593151506
 H        12.9614861129       -4.5766422798      -20.2982236698
 H        11.6971828351       -5.6819454819      -20.1328496582
 Na      -10.5023922877       -0.1105864937       -6.9977853375
 Na       10.1230663439       -1.6284367604      -15.8011390554
