232

 C        11.4762686218       -7.4771940114      -17.9013970629
 C        11.4472481574       -6.1122890204      -17.4222128009
 O        10.8008187992       -5.8333960256      -16.4600289921
 C        12.2121258355       -5.0450950459      -18.2531310247
 C        11.2928350098       -3.7871072896      -17.9894908304
 O        11.4711434245       -3.0441353676      -17.0253557983
 C        10.1796065568       -3.5153727785      -18.8505456998
 C         8.8181372923       -4.0382844754      -18.3501624250
 C         7.9427195425       -3.0405460899      -17.6818560977
 O         8.2217516120       -1.8789905477      -17.5150564687
 C         6.4613256952       -3.5874538053      -17.2901276748
 C         6.5740698767       -4.8301120883      -16.3311219920
 O         7.0859603428       -5.8420253204      -16.7596369236
 C         6.2148837912       -4.7009928173      -14.7983476023
 C         7.3066909545       -4.8594849337      -13.6806332689
 C         8.5263402465       -3.9424676884      -13.8656483945
 O         8.7909516911       -3.4970097158      -14.9612478215
 C         9.2087401178       -3.3481766148      -12.5752961832
 C         8.9554743458       -1.8147825900      -12.6940668982
 O         9.3803760700       -1.1120420135      -13.6168298439
 C         8.2267514521       -0.9778741091      -11.6373085421
 C         7.2501587971        0.2105815791      -11.9480130902
 C         5.8648819391       -0.4891535572      -12.3547581347
 O         5.9010439432       -1.5932900018      -12.7991431533
 C         4.5311483045        0.3034850061      -12.4458921373
 C         3.7957452542       -0.0572750265      -11.1668503110
 O         4.3749443504       -0.4103713980      -10.1143698111
 C         2.3199135944        0.1625718369      -11.2336386283
 C         1.6513525785        0.0678257704       -9.8551479725
 C         0.6035335290       -1.0880508053       -9.7333998281
 O         0.3157002986       -1.7127658831      -10.7433049649
 C         0.0995925367       -1.5148527862       -8.2611898998
 C        -1.2331019321       -0.6041859097       -8.3622783360
 O        -0.9630963674        0.5807000823       -8.5718238329
 C        -2.7129375179       -1.1156234060       -8.0049262714
 C        -3.3663751611       -0.1109741122       -6.9667401407
 C        -4.9439567325       -0.0880040236       -7.1108754717
 O        -5.3709629592       -0.8995860403       -7.9279348302
 C        -5.8321728554        0.9429404754       -6.4598418115
 C        -7.2431744157        0.7797449443       -7.2865332521
 O        -8.2878977413        0.4422279860       -6.7360968552
 C        -7.2336782631        1.2448514471       -8.8193797708
 C        -7.9651304346        0.2477809042       -9.6658870165
 C        -7.9327680383        0.7247401879      -11.2166258873
 O        -7.3829653870        1.8203094326      -11.4859098489
 C        -8.6672923348       -0.1146910723      -12.3050357321
 C       -10.2724115096       -0.4205687418      -12.0401144172
 O       -10.6795204191       -0.5529855026      -10.9343288978
 C       -11.0596851512       -0.8467768885      -13.2783970297
 C       -12.0795580555       -1.8981304663      -12.9026214348
 C       -11.4847061978       -3.3789981580      -12.9536691232
 O       -10.3662505352       -3.5880681204      -13.3784954343
 C       -12.0835072362       -4.5741478558      -12.1610489150
 C       -11.3340073490       -4.5929201559      -10.7408894773
 O       -10.1837018415       -4.9105124914      -10.6566118769
 C       -12.1947425150       -4.3838498474       -9.4954509310
 C       -11.4089797203       -4.7065004073       -8.1626792257
 C       -10.4358523012       -3.5730761478       -7.7012566822
 O       -10.6251151989       -2.4459102288       -8.1130451593
 C        -9.3886747451       -3.7771112910       -6.5341850171
 C       -10.0192593587       -3.0428898286       -5.2897148819
 O       -10.3395582023       -1.8943874346       -5.2219508240
 C       -10.5802877571       -3.9701504126       -4.1164544009
 C       -11.8718949233       -3.4108660697       -3.4630103585
 C       -13.0819577356       -3.7367214476       -4.1892944867
 O       -13.0391738331       -4.3085684929       -5.3052905816
 C       -14.4622547441       -3.4016062310       -3.5752325397
 C       -14.5469493903       -1.7753505108       -3.4695062049
 O       -14.2735802059       -1.2161845539       -2.4687061464
 C       -15.1332388601       -1.0995813006       -4.7647897581
 C       -14.7342073104        0.4116844904       -4.8595698037
 C       -13.3391002635        0.5140057859       -5.2424574648
 O       -12.7689964266       -0.4445465663       -5.7794768060
 C       -12.6252172776        1.8578291662       -5.0542548735
 C       -12.2281387592        2.5861508020       -6.3996179264
 O       -11.4827532641        2.0074320887       -7.1660574439
 C       -12.5123747060        4.0354522302       -6.8462323995
 C       -11.1173440104        4.7166907942       -7.1067092259
 C       -10.4247279451        5.3394406102       -5.8842754641
 O       -10.8602908757        5.1109995671       -4.7873561810
 C        -8.9324451071        5.9898101819       -6.1442155837
 C        -7.9294414454        4.9168135394       -5.7453247993
 O        -8.0221643826        3.8720430604       -6.3362427797
 C        -6.8532806498        5.2451631762       -4.6922890638
 C        -8.7829085203        6.4347672362       -7.6387883046
 C        -8.8182166213        7.2368299207       -5.3222071771
 C       -13.3911048967        2.7872890610       -4.0386224593
 C       -11.2333789709        1.5421959715       -4.3115134421
 C       -15.5772200898       -4.0179041942       -4.5477135679
 C       -14.5082109045       -3.9136766101       -2.1426439418
 C        -9.0147378666       -5.2932754133       -6.3216779181
 C        -8.1060631145       -2.9836685426       -6.8186713718
 C       -13.5850147712       -4.3336346629      -12.0014268415
 C       -11.8568407052       -5.8434257672      -13.0718781083
 C        -8.4382347638        0.4894751762      -13.7189778874
 C        -7.8906043528       -1.3915080798      -12.3748334752
 C        -5.9882019820        0.7277247360       -4.9129731599
 C        -5.2284400075        2.3467030578       -6.4646128789
 C        -0.1008752955       -3.0636694840       -8.2151354782
 C         0.8641900686       -0.9250143776       -7.1328902115
 C         4.7376829593        1.8036995170      -12.6009671117
 C         3.7103102136       -0.2412757259      -13.7911207133
 C         8.7900403375       -3.9987411183      -11.2180733975
 C        10.7243855656       -3.5487554270      -12.7179504297
 C         5.8020508076       -2.4266523016      -16.7083187737
 C         5.7124239725       -4.0843316556      -18.5672591038
 C        13.6434322044       -4.8076030898      -17.5178317571
 C        12.4636271631       -5.2793468262      -19.7383708082
 H        12.5020369737       -7.9025585354      -18.1344515718
 H        11.0762879776       -7.6108629504      -18.9804953375
 H        10.9885996752       -8.1547955718      -17.1549022603
 H        10.4192283379       -3.8100311911      -19.8730063757
 H        10.1312213117       -2.4095384359      -18.8037805926
 H         8.7853110202       -4.9763910908      -17.7559323453
 H         8.2346322345       -4.4855199822      -19.1254077887
 H         5.5752347892       -5.5941610204      -14.6888162635
 H         5.8890572434       -3.6471780153      -14.5698583194
 H         7.6576504887       -5.8831270474      -13.6171074705
 H         6.6899208883       -4.5510333401      -12.6631457950
 H         9.1100089399       -0.4813652753      -11.1373545908
 H         7.6652276394       -1.6953820409      -10.9507564925
 H         7.5549460943        0.7046717196      -12.8900852691
 H         7.1094526117        1.0408602846      -11.2692718886
 H         1.8940225666       -0.4523345853      -11.9907315655
 H         2.1281026511        1.1637078729      -11.5954143408
 H         1.1878877998        1.0264699662       -9.6829084757
 H         2.4948620990       -0.0937137543       -9.1187977487
 H        -2.7051193544       -2.1898775795       -7.7756721672
 H        -3.1622446696       -0.9712231804       -9.0436633431
 H        -2.9480970673        0.9047277881       -7.0424879410
 H        -3.1564677346       -0.5213330118       -5.9422175929
 H        -6.2512542775        1.5385814524       -9.2439638989
 H        -7.7721019332        2.1685424414       -8.8500161948
 H        -9.0072906239       -0.0604998025       -9.3391347662
 H        -7.4265923273       -0.7179085232       -9.5851283169
 H       -10.3366079705       -1.3664845046      -13.9128860933
 H       -11.4736144423       -0.0059068563      -13.8753962233
 H       -12.8317816828       -1.7292813935      -13.6441960726
 H       -12.5619510534       -1.6021690062      -11.8838869116
 H       -13.0184386468       -5.1033388464       -9.5741024151
 H       -12.5678373283       -3.3548974209       -9.4668330436
 H       -10.7785734475       -5.5014864671       -8.5269076066
 H       -11.9877724446       -4.9308088431       -7.2395645376
 H        -9.8021374015       -4.0686798797       -3.3112883756
 H       -10.8611885503       -4.9288012974       -4.5915422373
 H       -11.7614646242       -2.3287125348       -3.2686261148
 H       -11.9242683815       -3.9565448636       -2.5762902778
 H       -16.1540590288       -1.3104120205       -4.8151029809
 H       -14.5732380660       -1.7150449465       -5.4659630308
 H       -15.1700240567        0.7930360106       -3.9670316969
 H       -15.3642170996        0.9058429927       -5.6435014483
 H       -12.9780219007        4.5534431440       -5.9677323499
 H       -13.1355726537        4.0707919383       -7.7287910908
 H       -11.2092940681        5.4051516288       -7.9182581394
 H       -10.3648358633        4.0145532505       -7.5305084927
 H        -6.3543338337        6.1742470856       -4.9121197052
 H        -6.1496887614        4.3974996133       -4.4908496828
 H        -7.3898951524        5.5574943853       -3.8397610916
 H        -9.4807142735        7.2635686082       -7.9088315235
 H        -9.0617410858        5.6521921348       -8.3479899085
 H        -7.8829340885        6.8955307470       -7.8416091276
 H        -9.4655943726        8.0276456845       -5.5763151569
 H        -7.7566723598        7.4488747982       -5.2976146725
 H        -9.1771380828        7.1067986148       -4.2998539658
 H       -12.8148696559        3.6590630797       -3.7530021170
 H       -13.6725974722        2.2695335336       -3.0535673024
 H       -14.3951478552        3.1524904218       -4.3716344230
 H       -10.6385431908        2.4801373536       -4.2824435920
 H       -10.6341558288        0.7618388195       -4.6936502255
 H       -11.5076470955        1.2577917223       -3.2836499612
 H       -16.5201400996       -3.7559648994       -4.0859083823
 H       -15.3207606194       -5.1223134002       -4.6720461138
 H       -15.4464756243       -3.5716501642       -5.5404918201
 H       -14.1231787089       -4.9291986464       -1.9538302467
 H       -15.5696026501       -3.9730392982       -1.8022737900
 H       -14.0018873500       -3.1552808191       -1.4633692512
 H        -8.3051910984       -5.3860124203       -7.0640107906
 H        -9.8628463838       -6.0127410013       -6.6417144539
 H        -8.5950363710       -5.5367534853       -5.3716251290
 H        -7.3811213547       -3.0897687545       -6.0588078718
 H        -8.5306110625       -1.9777035402       -6.7399348582
 H        -7.7200539928       -3.3460083567       -7.8211290741
 H       -13.7928378880       -3.4273539949      -11.5052718899
 H       -13.9381934375       -5.2052200169      -11.4288356866
 H       -14.0674150594       -4.3876285604      -12.9143494239
 H       -11.4583196732       -5.5213208630      -13.9973582041
 H       -12.7605476101       -6.4377683812      -13.1464155238
 H       -11.0438135624       -6.3880854179      -12.6534569677
 H        -8.8964269678       -0.2079842827      -14.4357964307
 H        -7.3788568585        0.4171871205      -14.0649683778
 H        -8.7314271973        1.5114818107      -13.7690278980
 H        -8.2534646720       -1.8880184617      -13.3185783922
 H        -7.9836099006       -1.9785553604      -11.5001916787
 H        -6.8418497616       -1.1786588004      -12.4683288595
 H        -5.0983523561        1.1782590273       -4.4741298012
 H        -6.1119798628       -0.3108708215       -4.7036771954
 H        -6.8354765975        1.2983382627       -4.5651489828
 H        -4.2731226097        2.4302077096       -5.9920904065
 H        -6.0637473764        2.9898202500       -6.1250010189
 H        -5.0163918669        2.6043000438       -7.4942173580
 H        -0.7898960296       -3.4105991003       -7.4114522208
 H         0.8121698718       -3.6996523689       -8.2714835838
 H        -0.5791324884       -3.4157969407       -9.1960309397
 H         1.9048544666       -1.1836172118       -7.1767777746
 H         0.3315575734       -1.1472687687       -6.2230490890
 H         0.9255042591        0.1292106964       -7.0628513614
 H         4.8624193912        2.3136051945      -11.6864579131
 H         3.6680172480        2.1261429084      -12.9996067577
 H         5.4639049937        2.0797858600      -13.3757770771
 H         3.3843296583       -1.2513841762      -13.5466088155
 H         4.4982073354       -0.3855108185      -14.5611683818
 H         2.9317509894        0.4955037554      -14.0503431671
 H         9.0706021108       -3.2875474547      -10.4435566173
 H         9.2128259338       -5.0698174133      -11.0689675046
 H         7.7576322773       -4.0707126785      -11.1692309117
 H        10.9486325842       -4.5321773895      -12.8828151069
 H        11.3961771613       -3.0660450246      -11.9862630200
 H        11.0227375909       -2.9345492941      -13.5663567699
 H         5.9780300291       -1.6447619173      -17.3730334681
 H         6.2209498336       -2.2328443675      -15.7771903768
 H         4.7703020194       -2.7351446247      -16.5665327242
 H         6.1024022774       -5.0549684677      -18.9163539311
 H         5.6925105625       -3.2534417857      -19.2846907708
 H         4.7298799694       -4.1039106948      -18.1991686883
 H        14.1627647773       -5.7470869294      -17.6404876444
 H        13.4650105504       -4.6765531869      -16.4711193797
 H        14.3327365791       -4.1056844345      -17.9445176629
 H        13.3675828971       -5.8787188987      -19.9180499278
 H        12.5961638421       -4.4328150748      -20.3347342004
 H        11.6658685089       -5.7632900595      -20.2018845395
 Na      -10.4773855656       -0.2426591548       -6.9128368354
 Na       10.1482149621       -1.7257883980      -15.9163100903
