232

 C        11.6689012953       -7.5546509756      -18.0245012436
 C        11.4214456294       -6.0867483411      -17.4969819780
 O        10.7391596179       -5.8268836410      -16.5426489316
 C        12.2462792163       -4.9163563829      -18.2897313432
 C        11.3195907104       -3.5858849828      -18.0199033615
 O        11.5619030704       -2.9763063919      -16.9910740197
 C        10.0745037155       -3.3903428814      -18.9524297668
 C         8.7939824519       -4.0774682407      -18.3440075541
 C         7.8448702790       -3.0752203789      -17.6930584181
 O         8.1569331276       -1.8965293987      -17.4082841060
 C         6.4103046395       -3.5157628580      -17.2904556010
 C         6.7718914423       -4.8545596009      -16.2877520627
 O         7.0660256981       -5.9039962134      -16.8635274070
 C         6.2025142641       -4.7477000463      -14.8654220665
 C         7.2701140898       -4.9604854318      -13.7242848863
 C         8.3819081438       -3.9101597578      -13.8678245296
 O         8.7864219522       -3.6811336648      -15.0205040004
 C         9.0767729569       -3.2177927577      -12.6656871321
 C         8.8997610295       -1.6280134166      -12.6718251589
 O         9.3228669660       -1.1508019216      -13.7042443162
 C         8.2630675304       -0.7679772341      -11.4583758426
 C         7.2108313338        0.0963108712      -11.9924439387
 C         5.9121004035       -0.5194200387      -12.4643190220
 O         5.9292881438       -1.6748996904      -12.8450671215
 C         4.5690162239        0.3142016059      -12.4221815430
 C         3.7258988709        0.0220151470      -11.0975291351
 O         4.3679107186       -0.3132603816      -10.1507029020
 C         2.1940564175        0.3491515443      -11.0845633271
 C         1.6147176432        0.0254136705       -9.6653411862
 C         0.8086033053       -1.2396656421       -9.7271803622
 O         0.4674439104       -1.7837106794      -10.7352565699
 C        -0.0089717665       -1.5250172708       -8.3354447291
 C        -1.2439162218       -0.5310374398       -8.2637769314
 O        -1.0990314030        0.6482539072       -8.6067436935
 C        -2.6848531762       -0.9321495651       -7.8482589858
 C        -3.3155333647       -0.0564230733       -6.8102306095
 C        -4.8688386243       -0.1664163023       -7.1034740210
 O        -5.3108035872       -0.8658550229       -8.0098730036
 C        -5.8900218435        0.8773142370       -6.4694926699
 C        -7.2292546265        0.8509182319       -7.3072676866
 O        -8.1654678187        0.3191008165       -6.7532702813
 C        -7.3882113203        1.3034035984       -8.7473753712
 C        -8.0101824743        0.2476615152       -9.7731103968
 C        -7.9323146313        0.7920464620      -11.1507931176
 O        -7.2964654837        1.7480127558      -11.4248634449
 C        -8.5676716976       -0.1560169786      -12.3188063973
 C       -10.0306968814       -0.4956861095      -12.0253415114
 O       -10.5618754863       -0.2749261136      -10.9374411966
 C       -10.9447335568       -0.8966725682      -13.2736204457
 C       -12.0483026560       -2.0150199281      -13.0520976870
 C       -11.3788808008       -3.3204382625      -12.8541102560
 O       -10.3188550779       -3.4841176024      -13.3828331210
 C       -12.1568048330       -4.5497497343      -12.1224605336
 C       -11.3315588955       -4.6728071747      -10.7922119402
 O       -10.1117518612       -4.8676768166      -10.7694685609
 C       -12.1036682771       -4.4039249781       -9.4756211944
 C       -11.3571990159       -4.6197638506       -8.1238018602
 C       -10.4163997235       -3.5075235557       -7.6717451522
 O       -10.4496297823       -2.3997189844       -8.1798809685
 C        -9.3991266107       -3.8180680719       -6.5125140769
 C       -10.1119236261       -3.1888857675       -5.3015161148
 O       -10.1512709114       -1.9729701835       -5.2786898484
 C       -10.5265583032       -4.0683564097       -4.1089751193
 C       -11.7891969130       -3.5124885412       -3.3970496314
 C       -13.0766731911       -3.7302606393       -4.2365433030
 O       -13.1313601254       -4.2666533160       -5.3211939977
 C       -14.4378438992       -3.3084770632       -3.5018477397
 C       -14.5981714922       -1.7913887243       -3.4711437325
 O       -14.1445085687       -1.1135298300       -2.5598044362
 C       -15.3192643458       -1.1092771379       -4.6778892695
 C       -14.9063934972        0.3680001278       -4.9026173834
 C       -13.3343371975        0.4763650751       -5.2530753378
 O       -12.8112852733       -0.5178547000       -5.7677237953
 C       -12.4292762828        1.8604690725       -4.9838173812
 C       -12.0621430774        2.5610764738       -6.4140504058
 O       -11.4659993239        1.9323631613       -7.2473128202
 C       -12.4093915358        4.0531679749       -6.7815452922
 C       -11.1743138795        4.7419598593       -7.1249403531
 C       -10.3976638791        5.3170491736       -5.9348345649
 O       -10.8442196502        5.2819650039       -4.8151721943
 C        -9.0324033992        6.0842826468       -6.2328732282
 C        -7.9711532536        4.8719708633       -5.7860106956
 O        -7.9691307422        3.7575806550       -6.3018588840
 C        -6.9387622731        5.0789765427       -4.6710301489
 C        -8.8606083902        6.3347665118       -7.7037151356
 C        -8.8800709894        7.4126105581       -5.4004718846
 C       -13.3533767493        2.7561203435       -4.2042380279
 C       -11.0779503264        1.5377324620       -4.3020464366
 C       -15.5275293351       -3.9312550178       -4.3984320982
 C       -14.5622325968       -3.8611352080       -2.0602174361
 C        -9.1399922627       -5.3583779863       -6.2266940048
 C        -7.9317360040       -3.0865279264       -6.7685476511
 C       -13.8153799699       -4.3523263683      -11.9730118539
 C       -11.9652020992       -5.8873758728      -12.9002550268
 C        -8.4244280675        0.7506785672      -13.6218877543
 C        -7.8204359626       -1.5580227346      -12.3208995212
 C        -6.1258444556        0.5087606412       -4.8540036363
 C        -5.3756832353        2.3375031311       -6.5217939981
 C        -0.2347303654       -3.0183461316       -8.1753424028
 C         0.9260002404       -0.9125311748       -7.1374775344
 C         4.7421509136        1.8449234051      -12.5938263964
 C         3.8637667968       -0.2019441053      -13.6907077103
 C         8.6791314834       -3.9203440077      -11.3024060776
 C        10.6958478421       -3.5317334943      -12.8028585090
 C         5.6685348357       -2.2962316202      -16.6392138173
 C         5.7403809621       -4.2707177756      -18.5346304121
 C        13.6221932335       -4.7497377658      -17.6110753923
 C        12.3286697490       -5.2154394319      -19.7765527966
 H        12.7175605697       -7.9205292332      -18.1241593676
 H        11.4687481565       -7.5953553643      -19.1500952163
 H        11.0729360673       -8.3521735375      -17.5082642955
 H        10.3084640970       -3.8716925512      -19.8840679972
 H         9.9343453346       -2.3256969471      -19.1734164689
 H         8.9908183289       -4.8544142796      -17.6097690720
 H         8.2358331826       -4.8312606906      -19.0083577990
 H         5.6091702192       -5.6425590095      -14.8650796819
 H         5.8169273196       -3.8009635767      -14.6846145715
 H         7.7054532121       -5.9707757726      -13.8380309961
 H         6.6673358399       -4.8725731413      -12.7625233362
 H         8.9997999205       -0.0752194414      -11.0271225851
 H         7.7951959315       -1.4785511238      -10.7447363998
 H         7.6210053901        0.7283447371      -12.8253326902
 H         6.8405119946        0.8408659071      -11.2741096917
 H         1.8053370369       -0.3727903625      -11.7596321424
 H         1.8152362973        1.3207538307      -11.5175576373
 H         0.8305881631        0.7552761533       -9.3827785321
 H         2.4685032679        0.0181636012       -8.9293929124
 H        -2.7486267073       -2.0044032724       -7.6050598820
 H        -3.1721395681       -0.7741373805       -8.8944240694
 H        -3.1314502904        0.9791054156       -6.9158191152
 H        -3.0097996251       -0.4166342696       -5.8224178332
 H        -6.4128278355        1.6357921926       -9.0945793450
 H        -7.9596163266        2.1507616197       -8.8437939747
 H        -9.0289529718        0.0206703606       -9.6905985241
 H        -7.5847420046       -0.6891565401       -9.7140257059
 H       -10.2330106665       -1.2622991084      -14.0370750712
 H       -11.4144935527       -0.0156501667      -13.7105769410
 H       -12.7212317685       -1.8514381226      -13.9022194569
 H       -12.6456698334       -1.6924700063      -12.1688486619
 H       -13.0605401887       -4.8537720917       -9.4413955926
 H       -12.1950815465       -3.2969555168       -9.4949965543
 H       -10.8477089541       -5.6399291407       -8.1737169030
 H       -12.0197302790       -4.5191200491       -7.2488539479
 H        -9.6140123934       -4.1124787061       -3.4668401427
 H       -10.8008899689       -5.0070617515       -4.5452954945
 H       -11.5998855904       -2.4149338847       -3.3687711380
 H       -11.8298133125       -3.9844312149       -2.4134898934
 H       -16.3707846200       -1.2607475369       -4.4384437644
 H       -15.0456039881       -1.7477779484       -5.5208038439
 H       -15.1882861398        0.8055219498       -3.9079808210
 H       -15.6153943869        0.8570090306       -5.6039802858
 H       -12.9190122935        4.5437159913       -6.0365096179
 H       -12.9687319100        3.9906002166       -7.6853123673
 H       -11.3332632158        5.5042126937       -7.9759188840
 H       -10.4675618313        4.0234146463       -7.6631190353
 H        -6.4586321512        6.0722367790       -4.5369363933
 H        -6.2768400500        4.2792970556       -4.7523571021
 H        -7.5018904785        5.0132559006       -3.7497133497
 H        -9.7102776438        6.8474205328       -8.2353861514
 H        -8.8254489617        5.3849124356       -8.1700519880
 H        -8.0495163473        7.0321525693       -8.0022641863
 H        -9.4387041954        8.2731446424       -5.6826795275
 H        -7.8433024687        7.5959824027       -5.3537491391
 H        -9.3214695295        7.3083066062       -4.4198760871
 H       -12.9167669913        3.7224547750       -4.0249217192
 H       -13.6437927061        2.3969964054       -3.3004635867
 H       -14.2926441112        2.9154195849       -4.7239107290
 H       -10.4082318076        2.4095168225       -4.2898624451
 H       -10.6096773437        0.7715372326       -4.8954779755
 H       -11.1796495671        1.1281369549       -3.3314331275
 H       -16.4782972953       -3.4598383868       -4.1921015120
 H       -15.4533102937       -4.9857861464       -4.2424302532
 H       -15.1749034123       -3.7947006473       -5.4200251681
 H       -14.1809116453       -4.9061571606       -1.9696092028
 H       -15.5818118976       -4.0059694388       -1.8362801574
 H       -14.1045902055       -3.2383943527       -1.3137358819
 H        -8.6732452372       -5.7772452273       -7.1332180657
 H       -10.0123632409       -5.9328280355       -6.0809542131
 H        -8.4136524102       -5.3664189157       -5.4193324649
 H        -7.1727578821       -3.4140018142       -5.9990820342
 H        -8.1010144103       -2.0734904008       -6.6079114881
 H        -7.6868388252       -3.3651727123       -7.7360148663
 H       -14.0426683706       -3.6171601348      -11.2058751373
 H       -14.2199055391       -5.3098537601      -11.7706758200
 H       -14.3050569649       -4.1101094092      -12.9259266658
 H       -11.4999744029       -5.8197171948      -13.8600640416
 H       -12.9705616220       -6.3388372530      -12.9115229296
 H       -11.3214897954       -6.5395831786      -12.2623449829
 H        -8.7419466047        0.1964023406      -14.5028573740
 H        -7.4038496544        0.9283966371      -13.8596965977
 H        -8.8635667210        1.7110206474      -13.4193012297
 H        -8.4485919077       -2.2485611320      -12.7428001333
 H        -7.5969610872       -1.8380821575      -11.2314314576
 H        -6.8673315306       -1.5617157756      -12.8446062118
 H        -5.1422252633        0.6343462791       -4.3598205294
 H        -6.6038323128       -0.4491422500       -4.7594272835
 H        -6.7797678083        1.3064874503       -4.4527062543
 H        -4.3977694019        2.4394639154       -6.0593258730
 H        -6.1582767125        2.8701568065       -6.0466213509
 H        -5.1793489993        2.7080693317       -7.5140847857
 H        -0.8373918645       -3.1471949132       -7.3025519420
 H         0.7526968023       -3.5681723139       -8.0583405529
 H        -0.6699752814       -3.5974873409       -8.9639940023
 H         1.8721347367       -0.7461130699       -7.4874781857
 H         0.8696295450       -1.5300908561       -6.3039625271
 H         0.6837478402       -0.0257843013       -6.6694488132
 H         5.3079547816        2.2800965293      -11.7172141793
 H         3.8184679143        2.3299803310      -12.6917759090
 H         5.2585641765        2.0265257703      -13.5342044154
 H         3.9320377936       -1.3087669537      -13.5744464096
 H         4.3744194947        0.1036161635      -14.6086597274
 H         2.8738064597        0.2241019715      -13.5904064094
 H         9.2031601803       -3.4730098639      -10.4493347787
 H         8.8612852615       -4.9909296079      -11.4436540910
 H         7.6238836915       -3.8061257319      -11.1022241088
 H        10.8654343857       -4.6054486436      -13.0040446786
 H        11.2080788390       -3.2052206816      -11.9091890836
 H        11.2472653850       -2.9259849550      -13.4875491345
 H         5.8656045712       -1.5214784777      -17.2974281493
 H         6.1157484542       -2.0471039220      -15.6600522870
 H         4.6168824205       -2.5928769004      -16.4841143775
 H         6.4209033948       -4.9694529998      -19.0243386066
 H         5.4436266488       -3.5037054716      -19.1408024302
 H         4.7877710674       -4.7022295808      -18.0874852131
 H        14.1710872096       -5.7647151566      -17.6824898471
 H        13.3798026347       -4.6119061780      -16.5601604326
 H        14.3845838883       -4.0922119442      -18.0749908421
 H        13.1469805155       -5.8437904805      -20.0662060034
 H        12.4304618471       -4.3714628673      -20.3794173622
 H        11.4280328896       -5.6994220924      -20.1502841021
 Na      -10.5138793068       -0.4181158403       -6.8758127244
 Na       10.0318870941       -1.8232468993      -15.9572765021
