232

 C        12.1424678677       -7.4094915244      -18.1022387929
 C        11.5661309551       -6.0696107764      -17.7826661514
 O        10.7014165608       -6.0309494157      -16.9744543966
 C        12.1579714079       -4.7041649609      -18.4742108042
 C        11.2150785102       -3.5030844895      -18.0407562820
 O        11.6413025987       -2.8280174233      -17.0896085195
 C         9.9824414740       -3.1012082751      -18.8095116530
 C         8.6811665116       -3.8786901892      -18.4339041320
 C         7.5711906947       -3.0864367791      -17.6682309289
 O         7.8408837895       -1.9870436381      -17.2447622882
 C         6.2632613678       -3.7560946216      -17.2657067388
 C         6.6275551650       -4.9385467700      -16.2515499621
 O         7.3836364069       -5.8530826172      -16.5343863601
 C         6.0517524349       -4.8241893045      -14.8720587492
 C         7.1337182436       -4.9954586588      -13.8082070296
 C         8.1932314961       -3.9287502287      -14.0257657114
 O         8.5843385018       -3.8664852544      -15.1935256690
 C         8.8716682337       -3.1353958762      -12.8174346568
 C         8.6263109431       -1.5817182947      -12.9066111802
 O         8.9192229740       -1.0215419758      -13.9809017471
 C         8.3130140456       -0.7797379789      -11.7242928354
 C         7.1372424385        0.1532544353      -11.8073130106
 C         5.9745955467       -0.5610325927      -12.4205293483
 O         6.0947317638       -1.6576327749      -12.8902878785
 C         4.6433672622        0.3163561241      -12.5252413930
 C         3.8447201425        0.1247162375      -11.0984799878
 O         4.5060390874       -0.1426274280      -10.1406457200
 C         2.3191250429        0.3879301626      -10.9443470983
 C         1.6355913744        0.2229514552       -9.5987415367
 C         0.9738588528       -1.1279793418       -9.4299027740
 O         1.0624867743       -1.9614169382      -10.2825124057
 C        -0.0044326072       -1.3355104200       -8.1904298751
 C        -1.2418254358       -0.4147118595       -7.9802882495
 O        -1.1709075437        0.7273584369       -8.4247145944
 C        -2.5512866521       -0.9302560905       -7.3462063229
 C        -3.5788730347        0.1585977326       -7.0708344654
 C        -5.0390978553       -0.2562447011       -7.3055977379
 O        -5.3530915162       -1.0531972944       -8.1820009369
 C        -6.0028235582        0.6108610830       -6.5167950186
 C        -7.3657818729        0.6000682756       -7.2758216389
 O        -8.2908543016        0.0238038964       -6.7329764785
 C        -7.6051160359        1.1974107979       -8.5752346708
 C        -8.1130715215        0.2409960855       -9.6265522991
 C        -7.8698474277        0.7281567365      -11.0401038479
 O        -7.1325560787        1.6763933403      -11.1837531954
 C        -8.4296920602        0.0000848830      -12.2564909629
 C        -9.9573294671       -0.2957620984      -12.0401279412
 O       -10.7139790160        0.0384648908      -11.1605702938
 C       -10.6434397767       -0.9241142159      -13.2038115990
 C       -11.6966724397       -1.9882715872      -12.7501453591
 C       -11.1733116032       -3.3740428396      -12.8398941148
 O       -10.1763690706       -3.6994747139      -13.4412062377
 C       -12.1185150472       -4.3801718496      -12.0178429243
 C       -11.3920237863       -4.4806178032      -10.6855949069
 O       -10.2570343770       -4.9575090157      -10.6254783761
 C       -12.1048079722       -4.0333756940       -9.3657490729
 C       -11.2386367796       -4.6241889373       -8.1739448164
 C       -10.2711883277       -3.6199373330       -7.6285782496
 O       -10.0828804008       -2.5225249905       -8.1646674630
 C        -9.4276455544       -4.0366344226       -6.3863688879
 C        -9.9972791030       -3.4128347546       -5.1590190135
 O        -9.9922069190       -2.2208340549       -5.0109004517
 C       -10.5807671468       -4.1877431244       -3.9840202628
 C       -11.8635116347       -3.5151571125       -3.2794048586
 C       -13.1056286631       -3.6613997508       -4.0923697089
 O       -13.1038641922       -3.9869588990       -5.2790431436
 C       -14.4497814755       -3.2470740370       -3.4309347595
 C       -14.4057316909       -1.7097692221       -3.5998094403
 O       -13.6167852238       -1.0892172352       -2.9231544650
 C       -15.1697345128       -1.0524048751       -4.6851104733
 C       -14.7208809562        0.4670468449       -4.9367815905
 C       -13.2317483775        0.4731470475       -5.2851025567
 O       -12.7451533051       -0.5029954000       -5.8593886533
 C       -12.2685031700        1.7254961489       -4.9087428191
 C       -11.9262995836        2.3988097798       -6.3874769402
 O       -11.3927408767        1.7036416025       -7.2259704212
 C       -12.3977377658        3.7615211323       -6.9531684719
 C       -11.2042960339        4.6718246133       -7.3151393450
 C       -10.5787548881        5.4435277471       -6.1932631089
 O       -11.0044624866        5.5109584064       -5.0726863613
 C        -9.0287775539        6.0745919375       -6.4154503807
 C        -8.2004639424        4.9117706650       -5.7989281957
 O        -8.0453631700        3.8596002012       -6.3767654532
 C        -7.5272172691        5.0706756161       -4.4628984875
 C        -8.6191703223        6.2243979886       -7.8722250286
 C        -8.8896207611        7.4145796107       -5.6958463658
 C       -13.1161148535        2.6983591387       -4.1383450874
 C       -11.0420224765        1.2360364157       -4.1030434825
 C       -15.6392685339       -3.9231407811       -4.1035684204
 C       -14.4789613334       -3.4965723104       -1.9372910493
 C        -9.2446384296       -5.5452155685       -6.4095761530
 C        -7.9488423020       -3.3810282811       -6.6417269791
 C       -13.5949323270       -3.9182815328      -11.9186838070
 C       -12.0660463201       -5.7938730112      -12.7999154147
 C        -8.2001576768        0.7618935496      -13.6403241498
 C        -7.7059448548       -1.4561499049      -12.3972933615
 C        -5.9499914116        0.1352765436       -4.9819779300
 C        -5.4831513388        2.1603983121       -6.4293425924
 C        -0.5491949962       -2.8122645523       -8.4037899653
 C         0.8714065799       -1.1726363546       -6.8760082677
 C         4.9334698906        1.8321934822      -12.6450228016
 C         3.7679397102       -0.1710406196      -13.7912588855
 C         8.2723050957       -3.7081296946      -11.4964971417
 C        10.4480105370       -3.4138996560      -12.8610596001
 C         5.3680609222       -2.5299732327      -16.5991583944
 C         5.6420951514       -4.2238306377      -18.6278807458
 C        13.6164737856       -4.6038360420      -17.9680838135
 C        12.1716945685       -4.9218883847      -19.9205540528
 H        13.2019351866       -7.4516509811      -18.0579104724
 H        11.9644397915       -7.8801181928      -19.0993917428
 H        11.6384623682       -8.1049955210      -17.4679291213
 H        10.2448008908       -3.2318054788      -19.8713585602
 H         9.8729681327       -1.9931583551      -18.7336033758
 H         8.8604957642       -4.6574145459      -17.6930945745
 H         8.3807181923       -4.5939319300      -19.1485931748
 H         5.3058650815       -5.6906966849      -14.6142925150
 H         5.6220547781       -3.7938292517      -14.7555251193
 H         7.6111502839       -5.9339761710      -14.0988000731
 H         6.6474497874       -5.0740206386      -12.7332272923
 H         9.1648056831       -0.1010818047      -11.5721831258
 H         8.1291789543       -1.4556434113      -10.8408494467
 H         7.2358104298        1.0972233403      -12.3212378026
 H         6.9159609970        0.4079923103      -10.7906882986
 H         1.8718618064       -0.4133574571      -11.5043687840
 H         2.0080255271        1.2813821637      -11.5060175431
 H         0.8303687808        0.9038051520       -9.6561000169
 H         2.2431365995        0.4305426371       -8.7126082060
 H        -2.2382855981       -1.4888658624       -6.5038131670
 H        -2.9671837931       -1.6272763514       -8.0935352305
 H        -3.3967556588        1.0800566000       -7.6942777066
 H        -3.6197760915        0.3647263186       -5.9570447917
 H        -6.7167953669        1.8451107331       -8.9551536594
 H        -8.4091812719        1.9332788171       -8.3776221684
 H        -9.2238388848       -0.1131136103       -9.4655873287
 H        -7.4747618371       -0.7407826109       -9.6379602929
 H        -9.9506895004       -1.3400716205      -13.9259639420
 H       -11.0212847075       -0.0453588231      -13.7473700200
 H       -12.5842641029       -1.8416228647      -13.2964232597
 H       -12.0587368302       -1.6332849951      -11.7217695540
 H       -13.1586609519       -4.3069206939       -9.1641027089
 H       -12.0896764277       -2.9173857587       -9.2859134679
 H       -10.6143690748       -5.3724415954       -8.6138921963
 H       -11.8055417626       -5.0125111530       -7.3206645854
 H        -9.7173005136       -4.3376557789       -3.2621541724
 H       -10.9164410236       -5.1714948502       -4.3128780875
 H       -11.7438440495       -2.4216229645       -3.1554807130
 H       -11.9469329159       -4.0750762001       -2.4224833844
 H       -16.1589264993       -1.2888022453       -4.3461170111
 H       -15.0602555077       -1.6713360682       -5.5987989840
 H       -14.8284989353        0.9759451072       -3.9824095440
 H       -15.4222726041        0.9518183778       -5.6405642001
 H       -13.1552047869        4.2443645093       -6.3140505896
 H       -12.8307661437        3.3580359990       -7.9305637437
 H       -11.4012886721        5.3010227420       -8.1092833462
 H       -10.3858161855        4.0825700712       -7.6942359121
 H        -7.2984515491        6.1444998268       -4.2206831593
 H        -6.6441989023        4.4207944368       -4.3814761799
 H        -8.2302784726        4.8659692122       -3.6781146882
 H        -9.3384559459        6.9616768301       -8.3391840309
 H        -8.7262691200        5.2904904174       -8.3866167243
 H        -7.6285087255        6.5504826676       -8.0997976729
 H        -9.6352670501        8.1885473828       -5.9393764089
 H        -7.9448611551        7.9657409450       -5.9459313446
 H        -9.1369633812        7.3094402880       -4.5976841324
 H       -12.5968428854        3.6970500782       -4.0231034124
 H       -13.4576979906        2.3688086944       -3.1377454879
 H       -14.0679130759        2.9161808824       -4.7818785195
 H       -10.3860694065        2.1191829983       -3.8366876634
 H       -10.4800471789        0.4868817534       -4.6183673374
 H       -11.3693641998        0.7970348807       -3.1493979640
 H       -16.5746767871       -3.4887047313       -3.7152152231
 H       -15.6064213927       -5.0353230823       -3.9395308777
 H       -15.5040601726       -3.7398035309       -5.1854304870
 H       -14.4416141380       -4.5686799646       -1.6261501004
 H       -15.4417095565       -3.2161802324       -1.5366284588
 H       -13.6346286576       -2.9954467158       -1.4212403518
 H        -8.6347241405       -5.7238723719       -7.2716892831
 H       -10.1071665173       -6.2053318537       -6.6361566157
 H        -8.5471069426       -5.7226840367       -5.6001856691
 H        -7.5250846233       -3.5099171980       -5.6193618462
 H        -8.0555287596       -2.2943366952       -6.8004500976
 H        -7.5103488490       -3.8831969239       -7.5226239977
 H       -13.6576411865       -2.8565786772      -11.7089922518
 H       -14.1857049116       -4.5500456288      -11.2486383040
 H       -14.0197585339       -4.1943290968      -12.8456836918
 H       -11.5273153698       -5.6183424585      -13.6821781747
 H       -13.0884634944       -5.8877082750      -13.1733895897
 H       -11.7914796764       -6.6874227681      -12.2446910727
 H        -8.3637674150        0.1015159735      -14.5343254933
 H        -7.1519922078        1.0881935119      -13.7643444946
 H        -8.7592503405        1.6817516947      -13.6756745110
 H        -8.3138635507       -2.1921788999      -12.9057414309
 H        -7.3902351623       -1.9229602994      -11.4257590181
 H        -6.8263362379       -1.2646819268      -13.0041563037
 H        -4.9130485307        0.3008887740       -4.6902328598
 H        -6.2779101129       -0.8579923552       -4.8642588140
 H        -6.5382794457        0.8506274714       -4.4342390304
 H        -4.9246437273        2.2063875581       -5.4750126364
 H        -6.4260437872        2.6531012218       -6.1199675441
 H        -4.8333677759        2.6297715330       -7.1701863839
 H        -0.6514814513       -3.4078912675       -7.4999863859
 H         0.1067111674       -3.4984399172       -9.0507099146
 H        -1.5613151730       -2.8095931342       -8.8446262456
 H         1.6835571642       -1.9841102407       -6.7594961010
 H         0.1227563826       -1.1461782329       -5.9962622451
 H         1.4446071046       -0.2303649153       -6.6735097376
 H         5.2469493507        2.3004924971      -11.6799089199
 H         4.0011898751        2.2780483249      -13.0481009467
 H         5.6758067056        2.0749297165      -13.4075503274
 H         3.9617678014       -1.2313559810      -13.7312545721
 H         4.3290688580        0.2039528197      -14.6320221709
 H         2.7673338431        0.2085591875      -13.8818982010
 H         8.7588305671       -3.1273529557      -10.6947837877
 H         8.6746385282       -4.7714516422      -11.3649606098
 H         7.2493695479       -3.6916324420      -11.3361259834
 H        10.5096652412       -4.4455514077      -12.6211226357
 H        11.0796195454       -2.8318195738      -12.1426158142
 H        11.0095497415       -3.3050190853      -13.7969387330
 H         5.2644823534       -1.8233874195      -17.3229944127
 H         5.9621104301       -2.0865961274      -15.8189937964
 H         4.4046200037       -2.9461534813      -16.1800125269
 H         6.2379025381       -5.0889424752      -18.9621672650
 H         5.8344355132       -3.4450993832      -19.2886339019
 H         4.5914454392       -4.3995945962      -18.4156174267
 H        14.2334587711       -5.4669300258      -18.1473655954
 H        13.5360052397       -4.4948601562      -16.9518015226
 H        14.1502070936       -3.8713985414      -18.4723101942
 H        12.6409296730       -5.8634024512      -20.3408436711
 H        12.7154950097       -4.1099806602      -20.3636749936
 H        11.2084027173       -4.9643758575      -20.4525286247
 Na      -10.4556812179       -0.6692662478       -6.9184178499
 Na        9.8208047618       -1.8704878483      -15.8281377538
