232

 C        12.7345413834       -7.0978227979      -18.3201365023
 C        11.7205874542       -5.8703422417      -18.1406480032
 O        10.6099163376       -6.0919095816      -17.6219601028
 C        12.0836057814       -4.4680960498      -18.6899074193
 C        11.0286658200       -3.4645145031      -18.0591108841
 O        11.1351271426       -3.1054136837      -16.8713044666
 C         9.7482301622       -2.8831765171      -18.7459359549
 C         8.6210382553       -3.8546291543      -18.3453216544
 C         7.4689031643       -3.1053033565      -17.6176191659
 O         7.5780382004       -1.9581767027      -17.2358128220
 C         6.1311335885       -3.9025071458      -17.5116376190
 C         6.4321865178       -4.9066963134      -16.3663920146
 O         6.9909739547       -5.9272870875      -16.6952857259
 C         5.9080898558       -4.8628944780      -14.8843358276
 C         6.8612110966       -5.0036862901      -13.7071225876
 C         8.0725942957       -3.9909959653      -13.9168931018
 O         8.3667394687       -3.7185271321      -15.0625680230
 C         8.6834770264       -3.1169994129      -12.7164575369
 C         8.3896653267       -1.5418847214      -12.8974165980
 O         8.6349515637       -0.9791222822      -13.9829418103
 C         8.2693648145       -0.6764432015      -11.6115338755
 C         7.1314721687        0.3565866697      -11.7963071096
 C         5.9172176222       -0.3508893577      -12.4570319387
 O         6.0486939612       -1.4610866968      -12.9137983037
 C         4.4847521948        0.3226664585      -12.4217873137
 C         3.7816304407        0.1724864865      -10.9814289162
 O         4.4884681298        0.1682993635      -10.0155495967
 C         2.3313537354        0.4774807184      -10.8242291880
 C         1.7574056538        0.1653167775       -9.4612228614
 C         1.2985400165       -1.3152739652       -9.2293382541
 O         1.6500286128       -2.2114680170       -9.9375471742
 C         0.2346907172       -1.5191245280       -8.1221734974
 C        -0.9466949388       -0.2884317945       -8.1214885020
 O        -0.6713129291        0.8842112688       -8.3355653442
 C        -2.3352985499       -0.7577539070       -7.6407662169
 C        -3.4708599076        0.3602855115       -7.7348396244
 C        -4.8794898912       -0.2329667296       -7.4416802657
 O        -5.1983824730       -1.3064206623       -7.9184104151
 C        -5.9633581150        0.5390246520       -6.4952359087
 C        -7.4506312568        0.4313922092       -7.0298940308
 O        -8.2872587610       -0.2578273345       -6.4922436595
 C        -7.8119615790        1.1084402891       -8.3657987272
 C        -8.0116828904        0.1081784187       -9.4981843432
 C        -7.7220367008        0.7937723805      -10.8968424467
 O        -7.1447798966        1.7993913927      -10.8540926913
 C        -8.1258068055        0.0810977353      -12.2072361459
 C        -9.7549145299       -0.0151634383      -12.2170403790
 O       -10.4357379146        0.5472054136      -11.3476091696
 C       -10.4167612260       -0.8031680581      -13.3873066613
 C       -11.6957693544       -1.7930426943      -13.0434988136
 C       -11.1701586900       -3.2608781437      -12.8574090069
 O       -10.3022062973       -3.6799309854      -13.5537682722
 C       -12.1166790221       -4.3511997176      -11.9158404201
 C       -11.4768407388       -4.5978266253      -10.4906752864
 O       -10.4187651425       -5.2304653897      -10.4731784536
 C       -12.1260887997       -4.1235034546       -9.1891452601
 C       -11.3950184991       -4.6206048832       -7.9595608780
 C       -10.2301885424       -3.7249461133       -7.5237309416
 O       -10.0382341957       -2.5851934201       -8.0277903208
 C        -9.4295811923       -4.2578653793       -6.2965063558
 C       -10.1947914716       -3.6946859655       -5.0710317015
 O       -10.4699715816       -2.5201456974       -4.9799023862
 C       -10.5712956280       -4.5684028099       -3.8420772292
 C       -11.7725726408       -3.9621326763       -2.9811813611
 C       -13.0049399956       -3.8441906910       -3.9313414770
 O       -12.9572320645       -4.1761832374       -5.0834382850
 C       -14.2585759298       -3.0619835445       -3.2768072544
 C       -14.1573791631       -1.5866016761       -3.7477524697
 O       -13.2594710621       -0.9142420285       -3.2524032147
 C       -15.0448648457       -0.9307926959       -4.7157937524
 C       -14.5182984782        0.5006983580       -5.0768605336
 C       -13.0380133797        0.4624089096       -5.3970812234
 O       -12.6715706653       -0.4234199008       -6.1538071023
 C       -12.0809652407        1.6512412120       -4.9550564452
 C       -11.5715257495        2.2432592768       -6.3939786099
 O       -10.6835131609        1.6800195466       -6.9882043338
 C       -12.2265358835        3.5101219811       -7.1027313886
 C       -11.1299397262        4.4385784935       -7.6337385819
 C       -10.7731745847        5.4318357833       -6.5332994647
 O       -11.5079043494        5.8478879726       -5.6746514356
 C        -9.2441504487        6.1080906821       -6.6252856911
 C        -8.5088517915        4.9584755074       -5.8381434432
 O        -8.0526612746        3.9637622596       -6.4040249521
 C        -8.3256090623        5.0781261803       -4.4034897895
 C        -8.7171570081        6.1600653354       -8.0388152967
 C        -9.2111892147        7.4715481474       -5.9774099555
 C       -12.8887531964        2.7229202730       -4.1907433847
 C       -10.8289218971        1.1596465038       -4.0079125931
 C       -15.5783275262       -3.7092591431       -3.8195679978
 C       -14.2174598526       -3.1705692082       -1.7362066374
 C        -9.3094345690       -5.7712921873       -6.3045415617
 C        -8.0525664530       -3.6083578749       -6.4550314523
 C       -13.6194900274       -3.9045650988      -11.8827189750
 C       -12.0080643198       -5.5815154387      -12.7395437275
 C        -7.6197719060        0.9671888939      -13.3848248754
 C        -7.5482634708       -1.3855100873      -12.3535290412
 C        -5.7193960694       -0.3089398904       -5.1146836578
 C        -5.6292197565        1.9851910349       -5.9803287343
 C        -0.4457218734       -2.8407535623       -8.3273978864
 C         1.0345820735       -1.4868312868       -6.7914929857
 C         4.7050978352        1.7560184886      -12.7835506770
 C         3.6405509933       -0.3685667298      -13.4621983214
 C         8.2312672763       -3.6975511308      -11.3336286239
 C        10.2340877794       -3.3463416572      -12.8136239317
 C         5.1402716909       -2.8084027786      -17.0399631032
 C         5.5504358756       -4.5409904539      -18.8865342702
 C        13.5602742969       -4.0067921323      -18.3554624243
 C        11.9695830061       -4.5454727159      -20.2369250235
 H        13.6563544972       -6.7029206059      -18.5566007373
 H        12.4870663233       -7.8131464519      -19.0472618716
 H        12.7601433225       -7.7739302245      -17.5247669131
 H         9.9697409853       -2.8716324993      -19.8162120761
 H         9.5543826184       -1.8205308352      -18.5160663466
 H         8.9809216189       -4.7675108388      -17.8519894398
 H         8.1189661002       -4.3628427591      -19.1393322542
 H         4.9323089715       -5.5449561267      -14.8852811040
 H         5.3700936561       -3.9287521156      -14.6888519929
 H         7.3317113790       -6.0581088273      -13.6196295484
 H         6.3533524707       -4.8324665753      -12.7712099882
 H         9.1827995208       -0.1067819430      -11.6100001457
 H         8.2776563082       -1.2504827093      -10.6780030033
 H         7.5806497807        1.1063122212      -12.4487080916
 H         6.7381980718        0.8019656189      -10.9094954003
 H         1.8945880970       -0.2151642328      -11.5592601802
 H         2.0666234071        1.4698125454      -11.2901052846
 H         0.9409795122        0.8152093138       -9.3329813530
 H         2.5722824238        0.4428471498       -8.7719270683
 H        -2.3334545260       -1.2150993442       -6.7260076997
 H        -2.4774597861       -1.5171563993       -8.3899201299
 H        -3.4113987900        0.7522733713       -8.7613222073
 H        -3.2707573904        1.1195519347       -6.9339844797
 H        -6.9386372957        1.8214147745       -8.6680165207
 H        -8.7190654901        1.6614157525       -8.1743085313
 H        -9.0285227401       -0.3886628073       -9.3146005302
 H        -7.1462871214       -0.6573592215       -9.4716441127
 H        -9.6959250208       -1.4629920704      -13.8584371412
 H       -10.6124045614       -0.0792123104      -14.2020944412
 H       -12.4825860587       -1.6921152773      -13.7159659472
 H       -12.1041620108       -1.4083815126      -12.0675062281
 H       -13.1668379044       -4.4233407589       -9.0402145698
 H       -12.2402652781       -3.0197111883       -9.1343515602
 H       -11.1382648699       -5.6571034219       -8.0817135981
 H       -12.0816026461       -4.5234098327       -7.0943973634
 H        -9.6075207048       -4.6293420374       -3.2883828477
 H       -10.7363503796       -5.5739692864       -4.1625402114
 H       -11.5116715272       -2.8801785898       -2.8060189639
 H       -11.9097179195       -4.5522724232       -2.1169230174
 H       -16.0963125004       -0.9250720869       -4.4405442792
 H       -15.0095485705       -1.6514149732       -5.5903134960
 H       -14.7587990548        1.3135312957       -4.3759033958
 H       -15.0016692271        0.7818794274       -6.0420447048
 H       -13.0574798389        3.9613412344       -6.5269221437
 H       -12.6705423706        3.0671809799       -8.0953535050
 H       -11.4444293112        4.9847066172       -8.4655107580
 H       -10.2333935321        3.9214141429       -7.9151410600
 H        -7.2834566391        5.5041295256       -4.2383520064
 H        -8.3384279024        4.1115645576       -3.9659474343
 H        -9.0434247550        5.7160512560       -3.9010953829
 H        -9.4920360692        6.3998305909       -8.7866874862
 H        -8.2549200234        5.2600008074       -8.2395371776
 H        -7.8461339517        6.7844903345       -8.1378727259
 H        -9.3934129780        8.2397674019       -6.6994450799
 H        -8.2491614390        7.8631304123       -5.5896292427
 H        -9.8152986656        7.4777914580       -5.0363580605
 H       -12.2159364498        3.5695932164       -3.9276931541
 H       -13.2905562178        2.3261962553       -3.3332487026
 H       -13.6671399074        3.1200553161       -4.8464306308
 H       -10.2322738886        2.0158803380       -3.6676641918
 H       -10.2044821651        0.4521270178       -4.5591945283
 H       -11.2163750641        0.6834448419       -3.1489098057
 H       -16.4177555526       -3.0560539427       -3.6880789154
 H       -15.8337619069       -4.5808919229       -3.2615546660
 H       -15.4907393505       -3.8939985587       -4.8803819134
 H       -14.1420226131       -4.2176545942       -1.4433058219
 H       -15.0679773099       -2.7312910990       -1.3261226584
 H       -13.3957089509       -2.6939476897       -1.2593914213
 H        -8.5147865684       -6.0170370684       -7.0828252971
 H       -10.2386451373       -6.2467513438       -6.5378005819
 H        -8.9498880689       -6.1915375723       -5.3071946614
 H        -7.4293806594       -3.9922693358       -5.5232317949
 H        -8.3051530208       -2.5597717975       -6.4236696983
 H        -7.6361186717       -3.8166548149       -7.4210167154
 H       -13.7355252518       -2.8842459532      -11.3744336039
 H       -14.1474232618       -4.5613838282      -11.1559457308
 H       -14.0886243717       -3.8313672199      -12.9046549373
 H       -11.1020573670       -6.1133136099      -12.4671468547
 H       -11.8031030507       -5.4412118232      -13.8351615403
 H       -12.9567559873       -6.1967140988      -12.5972992947
 H        -8.0147929368        0.5430958433      -14.3236891013
 H        -6.5537291805        0.9776059453      -13.4018150017
 H        -8.0256493105        1.9545549795      -13.4423450419
 H        -6.9346777472       -1.5614522836      -13.1510259092
 H        -8.3739530031       -2.1773388860      -12.4201644339
 H        -6.9729940505       -1.6079154677      -11.4376712256
 H        -4.6144836907       -0.2821650714       -4.9399500907
 H        -5.9561213300       -1.3362221971       -5.3438342169
 H        -6.3433333125        0.0883178875       -4.2772685387
 H        -4.6631651639        1.9271032370       -5.4888445980
 H        -6.3061309068        2.2678198755       -5.1838156230
 H        -5.6527921715        2.7066937158       -6.7798199305
 H        -1.2823678815       -3.0784367195       -7.7616837674
 H         0.2070325975       -3.6408236494       -7.9876416899
 H        -0.7174031405       -2.9634766679       -9.3093700042
 H         0.6022887592       -2.1789965298       -6.0323889628
 H         0.8443088714       -0.5823413420       -6.1717173800
 H         2.1258798444       -1.5328543567       -6.9501187054
 H         5.5828787318        2.2659483669      -12.2485062971
 H         3.9014812997        2.2631153500      -12.4021810819
 H         4.8502844145        1.9448229767      -13.8232540418
 H         3.5995416532       -1.3941060731      -13.0611426030
 H         4.1006757377       -0.3105889159      -14.4316806757
 H         2.6451616432        0.0441354945      -13.4545022280
 H         8.6789886972       -3.2085026561      -10.4848482589
 H         8.4734976265       -4.7296606647      -11.1216965500
 H         7.1445884144       -3.5953610611      -11.3036754100
 H        10.4968778196       -4.4166796294      -12.8183721354
 H        10.8285216496       -2.9707988526      -11.9605956423
 H        10.6364260291       -3.0776382525      -13.7813400885
 H         4.7828200905       -2.2295775002      -17.8747057205
 H         5.8128189656       -2.1637051213      -16.4010285330
 H         4.2220447751       -3.2342801991      -16.5261403868
 H         6.3020631379       -5.0761166471      -19.4870180242
 H         5.2429074565       -3.6997898818      -19.3964485279
 H         4.6833136183       -5.1928701405      -18.5338392827
 H        14.3605278162       -4.6939588482      -18.8057101394
 H        13.6653412369       -4.0807335053      -17.2614956672
 H        13.7417339863       -2.9591383421      -18.6584365556
 H        12.6314821747       -5.2947119678      -20.7436068017
 H        12.1529809983       -3.5462010910      -20.6674293558
 H        10.9097663086       -4.8551866965      -20.5775908514
 Na      -10.3934506635       -0.7534506477       -6.6953601261
 Na        9.4970154194       -1.7849998167      -15.8682274535
