232

 C        13.0243728298       -6.6286895745      -18.5643316408
 C        11.8430565484       -5.7473923711      -18.3904601148
 O        10.7540481260       -6.1887953148      -18.0628677145
 C        11.9587763007       -4.1681788215      -18.7880169931
 C        10.8335024750       -3.3735236449      -18.1291409208
 O        11.0718092161       -2.9874759167      -16.9691786026
 C         9.5619238952       -2.9816233338      -18.7927634299
 C         8.3846030302       -3.8836447285      -18.5938409425
 C         7.2578590179       -3.1928988775      -17.7753443558
 O         7.3891173306       -2.0563359531      -17.3590873504
 C         5.8962955277       -3.9081944341      -17.6593397677
 C         6.1155738013       -4.8777668747      -16.3064667722
 O         6.8090649769       -5.8330626069      -16.5637652662
 C         5.6112583899       -4.5418680620      -14.8589045169
 C         6.7328334369       -4.6318818466      -13.7343345561
 C         7.9131708821       -3.7185013601      -13.9334563796
 O         8.3970490206       -3.7436437757      -15.0741023749
 C         8.6087748182       -3.2168652627      -12.7395881209
 C         8.5258453570       -1.5678647387      -12.7238674487
 O         9.0037264407       -0.9099436953      -13.6432057114
 C         8.0488213081       -0.7358434744      -11.5603104217
 C         7.0332703773        0.3405252653      -11.9122136317
 C         5.7372753224       -0.4351208562      -12.4265881940
 O         5.8614912967       -1.5922896269      -12.6854747569
 C         4.4234955790        0.3301823476      -12.5370912509
 C         3.9866700309        0.2020541425      -10.9844226404
 O         4.8407086061        0.4578330849      -10.1901723215
 C         2.5408147240        0.3554394555      -10.6866683791
 C         1.9975934199        0.0707814289       -9.2140343582
 C         1.3920575670       -1.3204435005       -9.0496926103
 O         1.5711259704       -2.1540370743       -9.8891077181
 C         0.2043806194       -1.5117203182       -7.9570589899
 C        -0.9571789884       -0.4021014697       -8.1849971064
 O        -0.6461017845        0.7779366280       -8.0267197397
 C        -2.3833432420       -0.7617671391       -8.3579517736
 C        -3.3632911685        0.3167915464       -7.8154636420
 C        -4.7211933594       -0.3398398486       -7.4971160000
 O        -5.0491022553       -1.2938032765       -8.2024337623
 C        -5.6513548217        0.3059428259       -6.3371375722
 C        -7.1393991772        0.2421754433       -6.8249589195
 O        -7.9319679252       -0.4226822431       -6.1961105275
 C        -7.3773544849        0.8952774697       -8.1664512504
 C        -7.7484047622       -0.0585616899       -9.3336248765
 C        -7.6533889210        0.7674784454      -10.7013925071
 O        -7.3053758132        1.8896274409      -10.6402529189
 C        -8.0466803063        0.0271287677      -12.0480771677
 C        -9.5930281359       -0.0241732023      -12.0675085733
 O       -10.3792124855        0.6986215052      -11.4533199354
 C       -10.2062393139       -0.8037753548      -13.1742888684
 C       -11.4321890342       -1.7530075300      -12.6685384298
 C       -11.0631246981       -3.2260329396      -12.6977652781
 O        -9.9677162669       -3.5691355483      -13.1060662157
 C       -12.1574601186       -4.1153626534      -12.1279647466
 C       -11.4563620232       -4.5279930230      -10.6887925279
 O       -10.3696054472       -5.0705612842      -10.6648641091
 C       -12.1666495586       -4.1814487773       -9.3442982110
 C       -11.6615971507       -4.7092392796       -7.9765464025
 C       -10.4553533751       -3.8653356682       -7.5055662793
 O       -10.2129191033       -2.7447426744       -7.9783539539
 C        -9.5806613895       -4.3787875388       -6.3344343541
 C       -10.4268839746       -3.7607130625       -5.0453011993
 O       -10.6350289836       -2.5521993360       -4.9135247617
 C       -10.6952519127       -4.6639011375       -3.7770611455
 C       -11.7845706700       -4.1741295965       -2.7539891409
 C       -13.0131787659       -3.9814254886       -3.6579666429
 O       -13.0264975948       -4.5014374796       -4.7773084115
 C       -14.1205976450       -3.1172097858       -3.1681191771
 C       -13.8515462367       -1.5536604186       -3.6737398144
 O       -12.9281766324       -0.9778540313       -3.1499646429
 C       -14.8421771944       -0.9584491901       -4.7297014894
 C       -14.6153256529        0.4887969139       -5.1199643469
 C       -13.0358372969        0.5618576995       -5.5230984879
 O       -12.6892690716       -0.3648053825       -6.1892683747
 C       -11.9899406564        1.6721278159       -5.1422874114
 C       -11.3409743908        2.2058005196       -6.4170533525
 O       -10.3528242071        1.6659401650       -6.9013400699
 C       -11.9966506824        3.3136332278       -7.2993809303
 C       -11.1432964273        4.3966502920       -7.8248683858
 C       -10.9195843449        5.5957778302       -6.8926620954
 O       -11.7592354806        5.9815337001       -6.0979440470
 C        -9.4110814369        6.1056025803       -6.8308297160
 C        -8.6290697828        4.9976181369       -5.8939214890
 O        -8.0526099720        4.0522295488       -6.3721682943
 C        -8.9080845770        5.2201975549       -4.3653604606
 C        -8.7538077226        6.1343738314       -8.1701781609
 C        -9.4784283486        7.4768641223       -6.1056405592
 C       -12.8162014686        2.9121810814       -4.5428573447
 C       -10.9243195285        1.0551095915       -4.1535270714
 C       -15.4949586235       -3.6609026172       -3.6425089770
 C       -14.1243003363       -2.9274327995       -1.5696712070
 C        -9.3520119732       -5.8930760182       -6.3742655485
 C        -8.2054275591       -3.7430066152       -6.2562748097
 C       -13.6327821394       -3.5929635422      -12.0672662281
 C       -12.1232373583       -5.4180647825      -12.8246231030
 C        -7.5318546575        0.7399703087      -13.2989384000
 C        -7.3339656359       -1.3868609486      -12.1176287794
 C        -5.3322198170       -0.4883334794       -5.0685852953
 C        -5.2009283642        1.8123942903       -6.1189384568
 C        -0.2966704925       -2.8976386050       -8.1696784894
 C         0.8069807560       -1.1777169995       -6.5650453498
 C         4.4388574741        1.8249607966      -12.8982325945
 C         3.3606391201       -0.4729064503      -13.3385713484
 C         7.9759223587       -3.6904036683      -11.3751085552
 C        10.0944836817       -3.4335542981      -12.8348322653
 C         4.7871175068       -2.9489457508      -17.4079971505
 C         5.5642704029       -4.9030268515      -18.7865201704
 C        13.3276833857       -3.5358257045      -18.3982699807
 C        11.8451559093       -4.2328550133      -20.2982818374
 H        13.9433173843       -6.2271649015      -19.0227403028
 H        12.6956655818       -7.6817046280      -18.8816190309
 H        13.2792947078       -6.9986265501      -17.5210577520
 H         9.7278389073       -2.9744832482      -19.8776506568
 H         9.3933978252       -1.9664362466      -18.4304485820
 H         8.4864397570       -4.9231375444      -18.0548219435
 H         8.0197041336       -4.1829791613      -19.5623860586
 H         4.7499233962       -5.2253620453      -14.5925062968
 H         4.9767418671       -3.6702661230      -14.8794549486
 H         7.1633118347       -5.6005757890      -13.8106360818
 H         6.2764033200       -4.5967382899      -12.7088203254
 H         8.9458409279       -0.3706803012      -11.1013712445
 H         7.6151952202       -1.2908848752      -10.7137672494
 H         7.4378054987        0.9613961500      -12.7679597492
 H         6.8670773979        0.9590779235      -10.9921297761
 H         1.8982291640       -0.2652459710      -11.3607856313
 H         2.3412241358        1.3363451116      -11.0630419885
 H         1.1953107522        0.8207495808       -9.0635478772
 H         2.7834905140        0.1818979056       -8.4298130224
 H        -2.6184095030       -1.6794370601       -7.7512741955
 H        -2.5213561152       -1.0892733133       -9.4191016003
 H        -3.4853317069        1.0589481762       -8.5750079712
 H        -2.9678358195        0.7779152504       -6.9247103581
 H        -6.5241834676        1.5029045624       -8.3840943343
 H        -8.1827467333        1.5066202359       -7.9140451390
 H        -8.6931134755       -0.3898485531       -9.0881400646
 H        -7.0504480467       -0.7856721439       -9.3749162751
 H        -9.4761529218       -1.3461764986      -13.7758339509
 H       -10.7008849722       -0.0947900484      -13.8846245106
 H       -12.3681101684       -1.5222359150      -13.1710589350
 H       -11.5992716167       -1.5118575291      -11.5906089464
 H       -13.2425664539       -4.3874789449       -9.4953971426
 H       -12.2092310319       -3.1220011435       -9.2191974368
 H       -11.4830784857       -5.7836983952       -7.9955611868
 H       -12.3317625833       -4.5739380026       -7.0307162289
 H        -9.6756767853       -4.7402609212       -3.4156920586
 H       -10.8288128481       -5.6755776780       -4.1308142737
 H       -11.5218974978       -3.1529169489       -2.2593421171
 H       -12.0327585276       -4.9145468383       -1.9742280341
 H       -15.8490713883       -1.2586754565       -4.4540152828
 H       -14.6493750516       -1.6050522793       -5.6511086905
 H       -14.6270246075        1.2681398670       -4.3437871921
 H       -15.1425330112        0.8910148274       -6.0327535963
 H       -12.8965447101        3.6885386544       -6.8812047466
 H       -12.3493820679        2.7969648304       -8.1497622482
 H       -11.6238049212        4.7931468952       -8.7599628600
 H       -10.0573946580        4.0519073717       -8.0083398670
 H        -8.1768736786        6.0208621842       -4.1997454126
 H        -8.7172665342        4.4753764075       -3.5866050964
 H        -9.8751420289        5.6233199902       -4.1794366743
 H        -9.4576070260        6.6372966141       -8.9374010915
 H        -8.6440650308        5.0836987272       -8.5379116246
 H        -7.7743340336        6.5922514301       -8.2015234052
 H       -10.1110782111        8.1131448622       -6.6626579416
 H        -8.5648411262        8.0022373430       -5.8781973597
 H        -9.8179280867        7.4237511228       -5.0775191363
 H       -12.2259587179        3.8282177679       -4.4870604188
 H       -13.1010502042        2.6249749576       -3.5939841370
 H       -13.7175126446        3.1326274543       -5.1597512244
 H       -10.1610361984        1.8427652550       -3.9717161153
 H       -10.4529418290        0.1959169475       -4.6015817053
 H       -11.3956732708        0.8040337554       -3.2152979701
 H       -16.3251210188       -3.1141558039       -3.1777752824
 H       -15.6582705162       -4.7545249391       -3.3929572413
 H       -15.6190728424       -3.5189693950       -4.7427274300
 H       -14.1711259232       -3.9514582895       -1.1595633407
 H       -14.9478584916       -2.2910222037       -1.2316031825
 H       -13.2726816060       -2.4482761614       -1.0300180423
 H        -9.0576782846       -6.1118580678       -7.3703547807
 H       -10.1582739757       -6.5378584997       -6.0617302127
 H        -8.5964783443       -6.2157348835       -5.6658090279
 H        -7.6243061883       -4.1792601972       -5.4129537839
 H        -8.3979507101       -2.7347730565       -6.2609677192
 H        -7.7017007424       -4.0176950690       -7.1363750838
 H       -13.7785543843       -2.6307449390      -11.6604582638
 H       -14.3169489872       -4.2165618931      -11.4922148078
 H       -13.9992762207       -3.5197719033      -13.0449916895
 H       -11.1186728832       -5.6458479665      -13.0575214827
 H       -12.6875994723       -5.4160747289      -13.7553265583
 H       -12.5212844796       -6.2569545761      -12.2457519218
 H        -7.8546319133        0.2867813291      -14.2367812805
 H        -6.4485655964        0.9292077412      -13.1682594813
 H        -8.0368531163        1.6573537724      -13.4723472016
 H        -6.5063079459       -1.3054872999      -12.7577573157
 H        -7.9094187729       -2.2549955399      -12.4804135445
 H        -6.9320456494       -1.6939810479      -11.1517810743
 H        -4.3262996709       -0.1946419137       -4.7745419668
 H        -5.3449415983       -1.5224505799       -5.2954291833
 H        -6.0695428245       -0.2922076537       -4.3130488603
 H        -4.4008111154        1.7875758724       -5.3917704406
 H        -6.0524855947        2.2678729214       -5.5473937920
 H        -5.0550299432        2.4485912356       -6.9840109546
 H        -0.2719977182       -3.5585437440       -7.2944412508
 H         0.2762377713       -3.5367598435       -8.9443514088
 H        -1.3506777665       -2.9386732092       -8.4660838573
 H         0.1741636404       -0.4490713630       -6.1393062409
 H         1.7323668571       -0.6871400256       -6.5320321802
 H         1.0221426441       -2.0341243957       -6.0297476499
 H         4.8864562413        2.5595927622      -12.1771744341
 H         3.4925512923        2.2753130609      -13.1623209764
 H         5.1407110956        1.7908653333      -13.7155951259
 H         3.2511129828       -1.4038305432      -12.7473798391
 H         3.7400799332       -0.7413299881      -14.3367259936
 H         2.3901126264        0.0358505795      -13.4016283336
 H         8.6654946007       -3.5486027678      -10.5312315676
 H         7.7696631414       -4.8079287782      -11.3096243778
 H         7.0575970874       -3.2278034063      -11.1513676170
 H        10.4618317755       -4.4010083619      -12.8690278203
 H        10.6134468932       -3.0364237800      -11.9450317924
 H        10.4278686542       -3.0439302952      -13.7870470827
 H         4.5029403461       -2.4735044862      -18.2691564279
 H         5.0913718240       -2.1908290311      -16.6752773223
 H         3.8636014463       -3.4924680008      -17.0558493947
 H         6.0859439852       -5.8919314500      -18.6972527918
 H         5.6910484076       -4.4188845627      -19.7229214040
 H         4.4779174495       -5.1244020873      -18.6694747117
 H        14.2056074639       -4.1305270699      -18.7695546096
 H        13.3653044127       -3.4236131344      -17.3507361032
 H        13.3355488468       -2.4967442740      -18.6485841586
 H        12.8405952927       -4.5875273720      -20.5803386675
 H        11.7135157174       -3.3377199070      -20.7788740841
 H        11.0601536632       -4.8687595032      -20.6637959846
 Na      -10.0436724880       -0.9423492871       -6.6110380217
 Na        9.2698649611       -1.8700022844      -15.9093163946
