232

 C        13.1634555512       -6.3551744640      -18.5957330757
 C        11.8258356141       -5.5613678476      -18.5933313800
 O        10.8276043124       -6.0560688813      -18.2291270838
 C        11.9467127803       -3.9995691520      -18.9093208964
 C        10.7186160429       -3.2923147629      -18.2447708845
 O        10.8611379087       -2.8888941035      -17.1283535627
 C         9.4030054897       -2.9619246855      -19.0010675216
 C         8.2866889536       -3.9440478534      -18.5493955754
 C         7.1837233759       -3.2653486641      -17.7745920224
 O         7.2595780783       -2.1529440271      -17.2175289973
 C         5.8125160070       -4.0147766753      -17.6708266375
 C         6.0136144109       -4.7906508799      -16.2699998557
 O         6.7076543889       -5.7597005850      -16.2893810286
 C         5.4854044897       -4.2006717857      -14.9411666258
 C         6.3693959032       -4.4301263089      -13.7798200931
 C         7.7091756237       -3.7868926736      -13.8634448046
 O         8.1711750607       -3.6202816791      -14.9875918659
 C         8.5500315906       -3.3423159485      -12.6435612121
 C         8.5468979152       -1.6572390945      -12.8014380894
 O         8.9441404342       -1.1061313442      -13.8011636061
 C         8.1499886044       -0.7326783437      -11.6857292124
 C         6.9969787450        0.2449064025      -12.1708294564
 C         5.7589589657       -0.5188139270      -12.5504376730
 O         5.7750548857       -1.7088653413      -12.9333561616
 C         4.4009633291        0.2872893304      -12.4584988649
 C         3.9246651310        0.5068485394      -10.9356717254
 O         4.6738522639        0.5811596440       -9.9755048020
 C         2.3948768916        0.4613230776      -10.5094761894
 C         2.1753428174        0.0347589746       -9.0313732133
 C         1.3186196906       -1.2534858786       -8.9705094471
 O         1.4223394017       -2.0529693121       -9.9011802541
 C         0.2346083846       -1.5241684611       -7.7723968267
 C        -0.8260565560       -0.4219668556       -8.1618516406
 O        -0.5057077096        0.7340266692       -8.0028819610
 C        -2.2632342343       -0.7307133421       -8.7640173869
 C        -3.1682542873        0.0503657185       -7.7488737735
 C        -4.6030553226       -0.4891570665       -7.5723506593
 O        -5.2189039967       -1.2783950192       -8.2400472898
 C        -5.3799576216        0.2461218371       -6.3855344071
 C        -6.8031382148        0.1014096019       -6.7769797892
 O        -7.6639101805       -0.4273925055       -6.0678371520
 C        -7.3022755540        0.8511871955       -8.0265561167
 C        -7.6471954319        0.0357949148       -9.3327149905
 C        -7.6071640596        0.8056550569      -10.5773567849
 O        -7.2824159281        2.0255857125      -10.5916275887
 C        -7.9108442757       -0.0248049031      -11.9315561641
 C        -9.4968905118       -0.0205893188      -11.9762900628
 O       -10.0671691331        0.6281551031      -11.1419467820
 C       -10.1760227977       -0.7273314779      -13.1238885614
 C       -11.3113339983       -1.6490818801      -12.7101703636
 C       -10.9748747454       -3.1675723190      -12.6730473499
 O        -9.8465758773       -3.5627217234      -12.8745021355
 C       -12.1119278355       -4.2028991693      -12.0597692416
 C       -11.5467909093       -4.5832144441      -10.6402217431
 O       -10.4119790883       -4.9208854714      -10.4816127386
 C       -12.3627137806       -4.2742722329       -9.4035481253
 C       -11.6530187209       -4.7631325319       -8.1135245667
 C       -10.5456983087       -3.7949067622       -7.5489639453
 O       -10.3777736755       -2.6727802124       -7.9434871015
 C        -9.7278782836       -4.4392764585       -6.3818140889
 C       -10.3410984892       -3.8765477988       -4.9915667288
 O       -10.6064125747       -2.7246487093       -4.8798584195
 C       -10.5822692681       -4.7204951895       -3.7325666207
 C       -11.5975840388       -4.0316263821       -2.9208907078
 C       -13.0508899879       -4.0085227882       -3.6173814977
 O       -13.3412214998       -4.5422033178       -4.6771985174
 C       -14.1616110710       -3.0916504923       -2.9905142298
 C       -13.8493376382       -1.6898651374       -3.5616860101
 O       -12.8940421717       -1.0305814674       -3.2309909308
 C       -14.6611929368       -1.1149651410       -4.7767414204
 C       -14.2515884018        0.3301893777       -4.9480677479
 C       -12.8009448520        0.4489906569       -5.5756804727
 O       -12.3230114112       -0.3514131668       -6.3858290847
 C       -12.0326441273        1.8019165870       -5.1987654586
 C       -11.4063293444        2.1562542400       -6.6014190776
 O       -10.4244804056        1.5122345111       -6.9084843957
 C       -12.0296275774        3.1429035475       -7.5605244788
 C       -10.9393782255        4.1611683057       -8.0276012234
 C       -10.8702766019        5.4443325477       -7.1141329590
 O       -11.8420046695        5.7508798462       -6.4916067808
 C        -9.4955005855        6.0906817391       -6.8643227271
 C        -8.8300335342        5.0985710821       -5.8431581657
 O        -8.0867158641        4.2620922398       -6.3116723382
 C        -9.0992293979        5.2234340846       -4.3195666796
 C        -8.6810052827        6.2204674304       -8.2081733334
 C        -9.6202262029        7.5635572897       -6.3216042242
 C       -12.7966934128        2.9690202760       -4.5357140647
 C       -10.9093056492        1.3640603733       -4.2147413890
 C       -15.5816073535       -3.5544622360       -3.4429024940
 C       -14.1238188753       -3.1507472109       -1.4231133670
 C        -9.7409480296       -5.9735134950       -6.2128546102
 C        -8.2769839760       -3.8213649648       -6.3773825722
 C       -13.5023097800       -3.5642834119      -11.9597874569
 C       -12.1869777454       -5.4055124992      -13.0511572086
 C        -7.3403940186        0.8626159254      -13.0979235274
 C        -7.4826068559       -1.4898556180      -11.8861871891
 C        -5.0669317330       -0.5997228870       -5.0571955902
 C        -5.0965673428        1.7397513584       -6.2139410618
 C        -0.1839607983       -3.0402564928       -7.8414786202
 C         0.7956147418       -1.1477343961       -6.3890761841
 C         4.6182999698        1.6604885699      -13.1366386123
 C         3.3980577533       -0.5100155887      -13.2943081328
 C         8.0922444121       -3.8012064801      -11.2346763128
 C        10.0954403927       -3.6430159910      -12.6895876971
 C         4.6046049175       -3.0407107878      -17.6829328318
 C         5.4487177551       -5.1141090508      -18.7870261362
 C        13.2490371482       -3.3951554845      -18.3346410843
 C        11.9137573146       -3.9572009551      -20.4038319568
 H        13.7450927827       -6.1142454169      -19.4528110355
 H        13.1028941150       -7.3887519539      -18.4347416297
 H        13.8099872684       -5.9933551145      -17.8363576752
 H         9.4682775752       -3.0668739380      -20.0770592506
 H         9.2489252785       -1.9326873556      -18.6436406531
 H         8.5282962770       -4.8465684763      -18.0735962157
 H         7.7686600804       -4.2252710930      -19.5362791545
 H         4.4992756949       -4.4499775108      -14.6181701419
 H         5.2326671031       -3.0971370983      -15.1362783296
 H         6.5514692019       -5.5313232073      -13.7249762612
 H         5.7892969863       -4.2328493568      -12.8325371673
 H         9.0360330521       -0.1740749442      -11.3265657753
 H         7.9011088951       -1.2180861017      -10.7627970746
 H         7.3548609483        0.8294626627      -12.9998261761
 H         6.7189684622        0.8469418127      -11.3153746196
 H         1.6988056371       -0.0599247294      -11.1546525953
 H         2.0913894498        1.5654410468      -10.6712010697
 H         1.7365899012        0.8856770359       -8.5273309175
 H         3.1454423673       -0.1623567962       -8.5977432610
 H        -2.6411801075       -1.7461503566       -8.8116671121
 H        -2.3972557050       -0.3595402216       -9.7425351349
 H        -3.2823543320        1.0999109976       -8.1156419043
 H        -2.7559846409        0.1359500071       -6.7175215795
 H        -6.5594947750        1.6062809733       -8.3176645529
 H        -8.2179309543        1.4221559556       -7.5819687258
 H        -8.7434027867       -0.3111301572       -9.3147914855
 H        -6.8449709427       -0.8063806701       -9.4470753813
 H        -9.5518705551       -1.2775933684      -13.8444796525
 H       -10.7044550891        0.0384148877      -13.6667184630
 H       -12.0277011834       -1.6371153652      -13.5677369836
 H       -11.8325288494       -1.3873298310      -11.8150834867
 H       -13.4203208084       -4.4627437144       -9.4828334507
 H       -12.3666553283       -3.1621434842       -9.2525407848
 H       -11.0880496198       -5.7047266273       -8.3079925808
 H       -12.2690317850       -5.0693859744       -7.3166028043
 H        -9.6529407057       -4.8851315247       -3.1784326061
 H       -10.8297295940       -5.7587560510       -3.9910563973
 H       -11.4162948190       -3.0301397434       -2.6789820318
 H       -11.6655786797       -4.6048764952       -1.9650198728
 H       -15.7753969946       -1.0010779575       -4.5574006042
 H       -14.6566734934       -1.8247464484       -5.5894028980
 H       -14.1771309654        0.9320958257       -4.0706373182
 H       -14.8396487417        0.8234020592       -5.6731943874
 H       -13.0180600535        3.5597637681       -7.1893375454
 H       -12.4172075221        2.5210953680       -8.4503935227
 H       -11.2004608352        4.5384960404       -8.9834838225
 H       -10.0048252074        3.7304305209       -7.9958217362
 H        -9.0303086892        6.1054534903       -3.7353126578
 H        -8.4215464448        4.5359508984       -3.8004959536
 H       -10.0712581299        4.7138600701       -4.1812974618
 H        -9.1047611589        6.9124717907       -8.8529370084
 H        -8.6246605718        5.2838336373       -8.7931244854
 H        -7.6825049516        6.6280611430       -7.9348545185
 H       -10.0004979504        8.2571551249       -7.1282368175
 H        -8.7454002775        7.8639276777       -5.7657152673
 H       -10.3565328681        7.7658079016       -5.5271780897
 H       -12.0894530813        3.7149416945       -4.3812244042
 H       -13.2463841929        2.6610056761       -3.5593480052
 H       -13.5362907418        3.3226065758       -5.1870499930
 H       -10.0888809741        2.0248425206       -4.1672353804
 H       -10.5893940396        0.3766809330       -4.4924823452
 H       -11.4052887437        1.2741903085       -3.2390565383
 H       -16.3259438409       -2.8235809890       -3.1767486769
 H       -15.8121511327       -4.4802654766       -2.9761041504
 H       -15.7070075590       -3.7504641639       -4.4860502687
 H       -14.1100715474       -4.1086846309       -0.9859715323
 H       -14.9501458839       -2.5723388306       -1.0232985893
 H       -13.2996656159       -2.6126103973       -1.0494616758
 H        -9.1444268273       -6.3807445305       -7.0368283808
 H       -10.7414323961       -6.5149114575       -6.2642181374
 H        -9.3846358471       -6.3756075138       -5.2631678106
 H        -7.8187728096       -4.0750676113       -5.4708085420
 H        -8.3213173629       -2.7234545960       -6.7138000807
 H        -7.6570244101       -4.4962452263       -7.0667969852
 H       -13.7187480915       -3.0000173060      -10.9958305168
 H       -14.3152937193       -4.3409434762      -12.0222738837
 H       -13.8487572734       -2.8163531574      -12.7438994146
 H       -11.1708389936       -5.7305267555      -13.4761535039
 H       -12.9421976003       -5.2072243607      -13.8319022901
 H       -12.5109484093       -6.3519452644      -12.5658314281
 H        -7.7148623934        0.6312864460      -14.0595203308
 H        -6.2740032671        0.9120446871      -13.0926092207
 H        -7.7227937049        1.8905104002      -13.0494873126
 H        -6.3502044063       -1.6998247271      -11.7184897556
 H        -7.7387038286       -1.9051413127      -12.8230325561
 H        -8.0299896378       -2.0790352946      -11.1760539222
 H        -3.9997596909       -0.4446519057       -4.8620454437
 H        -5.3482941182       -1.7005858309       -5.0856366018
 H        -5.6917508112       -0.1172918472       -4.2813913073
 H        -4.0276577399        1.8519025551       -6.0974208578
 H        -5.6324159054        2.2096087407       -5.4376080386
 H        -5.3939539775        2.2802610813       -7.1142754764
 H        -0.1314133973       -3.5810557738       -6.9130238217
 H         0.4201005594       -3.4898984194       -8.5155894207
 H        -1.1578625187       -3.2226963964       -8.2679250986
 H         0.3735642200       -0.1539408318       -6.1279450481
 H         1.8864067561       -0.9854602999       -6.5391506163
 H         0.6913666287       -2.0193580559       -5.6362992548
 H         5.0473184447        2.2504388854      -12.4141526747
 H         3.6179390829        2.2124198604      -13.2712942718
 H         5.2196119864        1.7478541379      -14.0378394299
 H         3.0868575811       -1.4517031951      -12.8534373637
 H         3.9762207602       -0.7438247954      -14.1962607683
 H         2.5208760313        0.0914936846      -13.5869223480
 H         8.5816788803       -3.1136720061      -10.5429308940
 H         8.3321114862       -4.8228108749      -10.9996587931
 H         7.0256503589       -3.6694419200      -10.9832656812
 H        10.4039330469       -4.7286735744      -12.6011418156
 H        10.5742703609       -3.2187529829      -11.8139166581
 H        10.6177019897       -3.2854883320      -13.5978532723
 H         4.2007242993       -2.9967606368      -18.7852043271
 H         4.7982375729       -2.0042142183      -17.3217473635
 H         3.8030011957       -3.4671703509      -17.0784100409
 H         6.1320226284       -5.9530480668      -18.7283378002
 H         5.3469332932       -4.6215807661      -19.8319630203
 H         4.4863437629       -5.5289943396      -18.6010152837
 H        13.9676682676       -3.8253178962      -19.0090927026
 H        13.5405109408       -3.5349248592      -17.2484099341
 H        13.2476033575       -2.2668649665      -18.3934110223
 H        12.8569335912       -4.3261369975      -20.8084060912
 H        11.7904087466       -2.8750407301      -20.7853398447
 H        10.9957018116       -4.4716075863      -20.7105413571
 Na      -10.1888866304       -0.7366897342       -6.5262115612
 Na        9.3608257729       -1.6949402501      -16.0024539266
