232

 C        13.1480723026       -5.9767522016      -18.7997646100
 C        11.9003481266       -5.1288665152      -18.8355613059
 O        10.7721193866       -5.5606483093      -18.7327449979
 C        11.9458550230       -3.5215318239      -19.1096179185
 C        10.6594637928       -2.9600260630      -18.4604178499
 O        10.7591723420       -2.4917527184      -17.3537596938
 C         9.2798421252       -3.1091136370      -19.2417184264
 C         8.2740407688       -4.0923316439      -18.5029881924
 C         7.0560146962       -3.3889562045      -17.8475147059
 O         7.0452714075       -2.1567979451      -17.5933489095
 C         5.7088364115       -4.2070587969      -17.5883555937
 C         5.7178511492       -4.7530119821      -16.0848736227
 O         6.0366216319       -5.8867121424      -15.7996255850
 C         5.2462020466       -3.9302972431      -14.9272833618
 C         6.0643316881       -4.2095346228      -13.7277862810
 C         7.4705476516       -3.7722932628      -13.9279322222
 O         8.0319346290       -3.8822772279      -15.0593732879
 C         8.3380166673       -3.3469803868      -12.7703268452
 C         8.4959431438       -1.6110720529      -12.7315709412
 O         8.9313633005       -1.1682930216      -13.7810165894
 C         8.0725120334       -0.8721298796      -11.4971541101
 C         6.9936713210        0.2583224246      -11.8902333305
 C         5.7885713047       -0.3645818766      -12.5939457945
 O         5.7637692015       -1.5286414687      -12.9666514033
 C         4.3512281676        0.3565806753      -12.4803114829
 C         4.1018086362        0.6116059774      -10.9577892626
 O         4.9119869945        0.8102025649      -10.0733645538
 C         2.6045361858        0.4374940408      -10.4666725258
 C         2.4494462288       -0.2071613452       -9.0601310633
 C         1.5584818314       -1.4246225116       -9.0890918340
 O         1.2588597566       -2.0990062404      -10.0697190403
 C         0.5835579409       -1.4584228935       -7.7593396971
 C        -0.5499212922       -0.4201709111       -8.0433031327
 O        -0.2491022273        0.7487832862       -8.0836879263
 C        -1.9497541304       -0.9249208798       -8.2199663446
 C        -3.0317610112        0.1039728619       -7.6196698727
 C        -4.4458060396       -0.4291768094       -7.5426350229
 O        -4.8174257468       -1.2794201744       -8.3283720654
 C        -5.2779712812        0.0063823577       -6.3752479525
 C        -6.7153539942        0.0530358049       -6.7341518424
 O        -7.5520877846       -0.5569835280       -6.0864536098
 C        -7.1041766396        0.9711501573       -7.8387958404
 C        -7.7613771306        0.2062692540       -9.0068151399
 C        -7.4368107262        0.7446049265      -10.3960557081
 O        -6.9640164244        1.8742513655      -10.4996854311
 C        -7.8463298535       -0.1064722043      -11.6436304296
 C        -9.4370403089       -0.1304652836      -11.6932654665
 O       -10.1091452352        0.0306996157      -10.7176127757
 C       -10.0266106946       -0.4561803353      -13.1157703270
 C       -11.3868537830       -1.3408317794      -12.9010620714
 C       -10.8634348919       -2.8153234890      -12.5049795991
 O        -9.6742704417       -3.0860635235      -12.7491147735
 C       -11.8617016674       -3.8902495657      -12.0421094555
 C       -11.5175263171       -4.3920378533      -10.6048191340
 O       -10.5494731013       -5.0475517995      -10.4173431627
 C       -12.4946919319       -4.2684664341       -9.3653341953
 C       -11.9203552301       -4.8624698973       -7.9950132175
 C       -10.8547623691       -3.9259112958       -7.4687236098
 O       -10.8785255140       -2.7435315720       -7.7222949359
 C        -9.8588894796       -4.4757641493       -6.3791088124
 C       -10.2148793811       -3.9382237045       -4.9800367832
 O       -10.1306151148       -2.7388658552       -4.7621067451
 C       -10.7109000399       -4.7601329662       -3.7623367997
 C       -11.6768451308       -3.9775940576       -2.8736107329
 C       -13.1861997997       -4.0616877500       -3.4027515754
 O       -13.5038449470       -4.7286848712       -4.4038741634
 C       -14.2209462536       -3.1457791434       -2.7061161900
 C       -13.8949643204       -1.7300773841       -3.2681179333
 O       -12.9910790295       -1.0533208230       -2.8833342227
 C       -14.5970128892       -1.1791230830       -4.5423415484
 C       -14.0999895935        0.2490792370       -4.7814331981
 C       -12.6708323903        0.3199216542       -5.4847637754
 O       -12.0820335159       -0.6630789890       -5.9388277340
 C       -12.0202099383        1.8449122277       -5.5423519745
 C       -11.3653923811        1.9510113521       -6.9337660694
 O       -10.4857171187        1.1331881383       -7.1330652474
 C       -11.7773160628        2.8702062532       -8.0969120811
 C       -10.7384311436        3.9704426166       -8.3313196865
 C       -10.8869675800        5.2135548145       -7.4090813762
 O       -11.9736989374        5.4954831935       -6.9925662486
 C        -9.6076790600        6.1120431706       -7.0861350283
 C        -8.9237449624        5.2805858760       -5.9178682983
 O        -8.0331279590        4.4685011867       -5.9900450488
 C        -9.4482040423        5.4599576936       -4.4133211736
 C        -8.6377556788        6.2982138894       -8.2181376790
 C        -9.9757034154        7.5012137554       -6.5949330170
 C       -12.9905383897        3.1119031307       -5.3860286708
 C       -10.9057477107        1.6429064379       -4.4131681700
 C       -15.6597487928       -3.5192326466       -3.1792603921
 C       -14.1707577577       -3.1983452348       -1.1304918730
 C        -9.8173806284       -5.9934000602       -6.2251317764
 C        -8.4753406019       -4.0113007682       -6.8556010241
 C       -13.2933570683       -3.3928664289      -12.0517859385
 C       -11.8380391281       -5.0293761225      -13.0630317206
 C        -7.3465517350        0.7356022538      -12.8718341847
 C        -7.2979972187       -1.5425270472      -11.4960620280
 C        -5.0997145874       -0.9511440930       -5.1363641923
 C        -4.8671565629        1.5855033586       -6.0645562850
 C         0.0348483596       -2.8756595696       -7.6579701762
 C         1.4134171766       -0.9975449486       -6.4472909485
 C         4.2339148037        1.7514431615      -13.0077613821
 C         3.3788407921       -0.6213992099      -13.0614053386
 C         7.8434010182       -3.8396302262      -11.4464350788
 C         9.7607788772       -3.8623301188      -12.8359260539
 C         4.5997743368       -3.2347413774      -18.0201827822
 C         5.5538092834       -5.4692392727      -18.4655152583
 C        13.1647130519       -2.8395708537      -18.4989584230
 C        12.0108189282       -3.4543416581      -20.6915422678
 H        13.4596615807       -6.0962396019      -19.8477471298
 H        12.8133175804       -7.0066946617      -18.4982665754
 H        14.0053499691       -5.5466830201      -18.3573384041
 H         9.5439478320       -3.4603872705      -20.2372145320
 H         8.8325029718       -2.1030801106      -19.2335863255
 H         8.8676178052       -4.6303517618      -17.8079207262
 H         7.7246729423       -4.7137036235      -19.2858279252
 H         4.2056784241       -4.1723230614      -14.8976580188
 H         5.2558575259       -2.7774064271      -15.2363501114
 H         6.1147409628       -5.3129930581      -13.6667349651
 H         5.5194539976       -3.7957213929      -12.7274691673
 H         8.9268144510       -0.3776555566      -11.0246889269
 H         7.6231781680       -1.5433086995      -10.7912262210
 H         7.4955041128        1.0140244896      -12.5134669254
 H         6.6302116624        0.6571212032      -10.9231514744
 H         2.0279437254       -0.1902823780      -11.1654160584
 H         2.1236680137        1.4677459459      -10.3890548487
 H         2.0532662774        0.5828697654       -8.3862674530
 H         3.4230423736       -0.3892271705       -8.6141201936
 H        -2.1775853694       -1.8617960972       -7.7319377769
 H        -2.0374152668       -1.0222235021       -9.2208929570
 H        -3.0709184205        1.1150858897       -8.0421292579
 H        -2.7662601634        0.3553885253       -6.5883513775
 H        -6.2772821907        1.5662964485       -8.1214637727
 H        -7.8901421303        1.7093209624       -7.4147979450
 H        -8.8577103731        0.2902165621       -9.0116587880
 H        -7.5050954588       -0.8539246681       -8.9652676523
 H        -9.3039691723       -1.0048041449      -13.7495596481
 H       -10.3571419402        0.4758536487      -13.5733915658
 H       -12.0788428184       -1.5735833821      -13.7384545161
 H       -11.9346261460       -0.9161367550      -12.0950835618
 H       -13.3829819871       -4.8550390450       -9.4902609529
 H       -12.8466813419       -3.2271330599       -9.3692227316
 H       -11.4555868215       -5.8828960036       -8.1328424217
 H       -12.6805168566       -5.1218702818       -7.2943809857
 H        -9.8693995931       -5.0370374132       -3.1442378698
 H       -11.0851136738       -5.7594458201       -4.0660528751
 H       -11.4956094016       -2.9320329340       -2.8406840872
 H       -11.6670730128       -4.2126726336       -1.7516685796
 H       -15.7136880787       -0.9997456647       -4.2841365190
 H       -14.6539205706       -1.8572979326       -5.4101579974
 H       -13.7703190315        0.7959024047       -3.9151750070
 H       -14.7181424550        0.8577969590       -5.4303051535
 H       -12.8437969058        3.1969671686       -7.9003001075
 H       -11.8929411129        2.3126036864       -9.0545360461
 H       -10.8626539184        4.3816168372       -9.3188761009
 H        -9.7750152755        3.6109849776       -8.1528866581
 H        -9.5966338391        6.3979304984       -3.9855263310
 H        -8.7108655978        4.9649318342       -3.7396762754
 H       -10.3152429867        4.8209614132       -4.3057150028
 H        -9.2032001350        6.5167924962       -9.1101603680
 H        -8.0295034087        5.3657132046       -8.4586510123
 H        -8.1510858704        7.2393613881       -8.0273842429
 H       -10.5812998157        8.0470044986       -7.3341340010
 H        -9.1489230074        8.1517450408       -6.3249944968
 H       -10.7204089992        7.4995983725       -5.8423379269
 H       -12.3683470042        3.8693076961       -5.6742357335
 H       -13.3359174415        3.3421168873       -4.4009166276
 H       -13.8145337926        3.0662101089       -6.0455425645
 H       -10.4378964830        2.5814626237       -4.2126725646
 H       -10.1667186419        0.9447678371       -4.7318232271
 H       -11.4421222637        1.2688961861       -3.5033850539
 H       -16.4267749466       -2.8676726656       -2.7764478777
 H       -15.8564201444       -4.5209785527       -2.7631400813
 H       -15.8959246553       -3.7263656208       -4.2041229818
 H       -14.3147396699       -4.1509706066       -0.6937618917
 H       -15.0543667445       -2.6462666085       -0.7156055860
 H       -13.2716969196       -2.7339763819       -0.7099041282
 H        -9.2367649385       -6.5087079252       -6.9489611810
 H       -10.8337090722       -6.5342182329       -6.3820718952
 H        -9.3482618551       -6.3541549679       -5.3274751953
 H        -7.7892194303       -4.4794850910       -6.2123499444
 H        -8.3879666903       -2.9286619775       -6.6195376482
 H        -8.2080863708       -4.2669764665       -7.9339240978
 H       -13.3885862907       -2.4998261082      -11.4485317270
 H       -14.0601095849       -4.1831589901      -11.8350821304
 H       -13.5894593405       -3.1107376876      -13.0474305115
 H       -10.9773026696       -5.7210725628      -13.0061137864
 H       -11.9476904035       -4.5748041472      -14.0417274197
 H       -12.6251844124       -5.7318013381      -12.9444086053
 H        -7.3381008589        0.3817260999      -13.8926600286
 H        -6.3502143852        1.1857548438      -12.7430362601
 H        -7.9263530109        1.6750293455      -12.7975872251
 H        -7.9418375693       -2.1821509756      -10.7778357498
 H        -6.3108692116       -1.4924527605      -11.1301680695
 H        -7.2819216350       -2.0776717505      -12.4105931116
 H        -4.1268166939       -1.0245737817       -4.6960661188
 H        -5.4833337949       -1.9358406630       -5.5014724935
 H        -5.7619844766       -0.5914205394       -4.3700390064
 H        -3.9684491950        1.5838090938       -5.4858022359
 H        -5.6348676091        2.1629787558       -5.5777820678
 H        -4.5741119076        2.1582124819       -6.9405305051
 H        -0.9430824800       -2.9738875787       -7.2214178285
 H         0.7049890752       -3.4809525993       -7.1240670710
 H         0.0294493222       -3.3278753775       -8.6730573904
 H         2.1436285508       -0.2552484702       -6.6179859922
 H         1.8445509372       -1.8853258403       -6.0823632725
 H         0.7453171887       -0.4465569557       -5.8617120535
 H         4.8061140909        2.3550267272      -12.3973850482
 H         3.1322957603        2.0395456389      -13.1043282229
 H         4.4806148077        1.9666964624      -14.0179452081
 H         3.0789887737       -1.4577671189      -12.4487102339
 H         3.9241331052       -1.0722682857      -13.9160986275
 H         2.5131704652       -0.1408816483      -13.5594518588
 H         8.5227675356       -3.5292979828      -10.6556612499
 H         7.7554803660       -4.9602898632      -11.4197237370
 H         6.9738671849       -3.3909973717      -11.1004234592
 H         9.6759587836       -4.9352820191      -12.8338538199
 H        10.4355541158       -3.5323460169      -12.0587895229
 H        10.3329260699       -3.5368353680      -13.7289826642
 H         4.8232350703       -3.0397777223      -19.0877071188
 H         4.5058481146       -2.2612122883      -17.5256070887
 H         3.5808051701       -3.6775164305      -17.8394469507
 H         6.1668772405       -6.2422260983      -17.9743448371
 H         5.8719430759       -5.3437273607      -19.5795148139
 H         4.5603199624       -5.7560970999      -18.6068950138
 H        14.1306779164       -3.1554244557      -18.9277684820
 H        13.1439117777       -3.1567825951      -17.4240735193
 H        13.1999727531       -1.7245462221      -18.6660055506
 H        13.0116648595       -3.7907367439      -20.9858297343
 H        11.8387082426       -2.4396700408      -21.0504622054
 H        11.3584154951       -4.1850292195      -21.1101814356
 Na       -9.7541165869       -1.0147173213       -6.6596289460
 Na        8.8672714101       -2.0476835219      -16.0880839399
