232

 C        13.1133121810       -5.7939639452      -18.8817279047
 C        11.8545141997       -5.0041993540      -18.9762646423
 O        10.7485921932       -5.5538567882      -18.8163213331
 C        11.9029295270       -3.4472119359      -19.1416821209
 C        10.6417319650       -2.8970008620      -18.5046482349
 O        10.6802059674       -2.3507583375      -17.4103098968
 C         9.3060582061       -3.1563908335      -19.1752677678
 C         8.3022199891       -4.0906326748      -18.4945786276
 C         7.0111288769       -3.4666895663      -17.9959615598
 O         7.1027801666       -2.2623837830      -17.6324857066
 C         5.6953753964       -4.2286680275      -17.7542420971
 C         5.5421822410       -4.8479376737      -16.1014732217
 O         5.8512305703       -5.9972071809      -15.8568345855
 C         5.0320149998       -3.9331023029      -14.8900934578
 C         6.0367189357       -4.2475481287      -13.6949899389
 C         7.4662824455       -3.7991349863      -13.9306505693
 O         7.9542029278       -3.8866875100      -15.0717799558
 C         8.3553300189       -3.3206074952      -12.7060996662
 C         8.3793591927       -1.7211818642      -12.8022514161
 O         8.8734137276       -1.2538230223      -13.7839397142
 C         8.0479073101       -0.9270421186      -11.6198477976
 C         7.1686425945        0.3304017415      -11.9072340215
 C         5.8742008075       -0.2545234688      -12.4273262757
 O         5.9447495791       -1.3117700990      -12.9807705411
 C         4.3819168643        0.3858705102      -12.4296108959
 C         3.9929315173        0.5075468022      -10.9167334302
 O         4.8931566404        0.8096342442      -10.1612193778
 C         2.5502621745        0.4834701840      -10.4867875399
 C         2.5189173491       -0.1908362421       -9.1162562578
 C         1.5076823232       -1.2305186999       -8.9881591017
 O         1.3808275326       -1.9968960937       -9.9068828916
 C         0.6959574843       -1.5448538173       -7.7178709720
 C        -0.5211071808       -0.4886542514       -7.9704130611
 O        -0.1892927443        0.6910703655       -8.0901483546
 C        -1.9517220142       -0.9450988955       -8.1639514144
 C        -2.8659095015        0.2058309915       -7.6292628659
 C        -4.3244320770       -0.3934978639       -7.5272159807
 O        -4.8022470190       -1.1921259104       -8.2942150911
 C        -5.2716412651        0.0452867452       -6.1653326941
 C        -6.8143587069        0.0242191521       -6.6260246949
 O        -7.6248557073       -0.6932310143       -6.0729117652
 C        -7.0321715631        0.9269922705       -7.9051264095
 C        -7.8844576680        0.2463899799       -8.9799259266
 C        -7.4906367594        0.8520256437      -10.4191801435
 O        -6.8501202254        1.8157795930      -10.6157697620
 C        -7.8867281673       -0.0028864620      -11.6166619897
 C        -9.4319858160       -0.1398437370      -11.6391431147
 O       -10.1347155494       -0.1154348618      -10.6282123513
 C       -10.0946094761       -0.3030051133      -12.9607601548
 C       -11.2629137992       -1.3843539752      -12.9080749011
 C       -10.7634135208       -2.8041356077      -12.4880678925
 O        -9.6289614475       -3.1612116249      -12.6053054251
 C       -11.8843902840       -3.8023780441      -12.0391196514
 C       -11.5014518876       -4.4210870945      -10.6160470610
 O       -10.4603748659       -4.9928884659      -10.3691489560
 C       -12.5849164208       -4.1954410459       -9.4236060393
 C       -12.0565363356       -4.8319155422       -8.1576409743
 C       -11.0321366517       -3.9411899246       -7.3734947018
 O       -10.8508988236       -2.7917996925       -7.7352228519
 C        -9.8773581346       -4.5494763495       -6.3068102223
 C       -10.1788626324       -3.9184748486       -4.8819939024
 O        -9.9508058083       -2.7078794427       -4.6939338776
 C       -10.7744793531       -4.7926129844       -3.7117016932
 C       -11.7127499519       -3.9729237757       -2.8641269927
 C       -13.2337231636       -4.0318742031       -3.3446456189
 O       -13.4671705196       -4.7693533711       -4.2755098013
 C       -14.2744202481       -3.1256432170       -2.6761000108
 C       -13.8696226068       -1.6609078043       -3.1541747650
 O       -12.9740984352       -1.0039132715       -2.6629004695
 C       -14.6285835321       -1.0981080441       -4.4211946496
 C       -14.1433288533        0.2804461149       -4.8395028909
 C       -12.6724151655        0.3659372764       -5.4404185698
 O       -12.0487204830       -0.5837285247       -5.7557736099
 C       -12.0129724366        1.7606915825       -5.6618020028
 C       -11.2848075208        1.8276509138       -7.0547338816
 O       -10.4230124737        1.0218735102       -7.3611820022
 C       -11.6040914413        2.8672647259       -8.1203414202
 C       -10.5582522559        3.9820299509       -8.3751419561
 C       -10.8921015480        5.1861401921       -7.4687875204
 O       -12.0377050567        5.4263778067       -7.0716164913
 C        -9.6717881538        6.0938808183       -7.0603316669
 C        -8.9328595521        5.3086100067       -5.7679206535
 O        -8.0670639852        4.5630447519       -6.1281013482
 C        -9.5367961775        5.5434599225       -4.4236896604
 C        -8.6510922855        6.1225737184       -8.2704352807
 C       -10.0747689743        7.4798835461       -6.6508818825
 C       -13.1040872259        2.8492866430       -5.4682740360
 C       -11.0018472412        1.7589055080       -4.5288990692
 C       -15.6568806608       -3.5371630049       -3.1521229727
 C       -14.1400140398       -3.2024391461       -1.1915006350
 C        -9.7842854052       -6.1249669983       -6.4000620129
 C        -8.4962930987       -3.9636409078       -6.8576923050
 C       -13.3820484815       -3.3136668702      -12.0611997784
 C       -11.7841341841       -4.9292506931      -13.1455942271
 C        -7.2986221289        0.6289516981      -12.8888528270
 C        -7.2202356833       -1.4571184145      -11.4832945346
 C        -4.9945523944       -0.9242257672       -5.0665701324
 C        -4.8828251416        1.4638188715       -5.8183681476
 C         0.2164955646       -3.0769513428       -7.6372957511
 C         1.4927577975       -1.0796401292       -6.4164873719
 C         4.3114691796        1.8261577739      -13.0777197854
 C         3.3857948026       -0.6668964214      -13.1720587578
 C         7.6640722658       -3.8421215736      -11.3554262289
 C         9.8389468649       -3.6880186404      -12.9159403705
 C         4.4993254307       -3.2744825746      -18.0831478831
 C         5.6782855924       -5.5389345459      -18.5035374256
 C        13.1842976943       -2.7714378397      -18.5131333181
 C        11.9670197177       -3.3299259966      -20.7217855006
 H        13.5440794510       -5.8074612808      -19.8428582498
 H        12.9082043723       -6.8255800534      -18.6576222483
 H        13.8389448265       -5.2584321261      -18.3514152995
 H         9.5420771995       -3.5080248562      -20.2076892985
 H         8.8259915761       -2.1676181379      -19.1863704924
 H         8.7436095623       -4.3314252959      -17.5280351557
 H         8.0813148777       -4.8906684753      -19.1107941004
 H         4.0485261857       -4.3438200465      -14.7237790971
 H         4.9288136270       -2.9279103348      -15.2446209548
 H         5.9809075840       -5.3500941955      -13.6511783527
 H         5.6749807775       -3.8264195905      -12.7852111695
 H         9.0803237880       -0.5759802509      -11.3672638806
 H         7.6029898975       -1.4858994487      -10.7733179362
 H         7.6475727208        0.8213195083      -12.7200890028
 H         7.0953912776        0.9271814371      -11.0047481311
 H         2.0415613941       -0.2357240289      -11.2055792523
 H         2.0805196300        1.4432141892      -10.4631785097
 H         2.4964854801        0.6233145234       -8.3862958305
 H         3.4465284015       -0.6421659358       -8.8686310414
 H        -2.1701743240       -1.8090830794       -7.5443900195
 H        -2.1572387185       -1.0982493230       -9.2266311178
 H        -3.0055295498        1.0554603816       -8.3442215507
 H        -2.5069855483        0.7068978362       -6.7396304400
 H        -5.9921273042        1.2148097443       -8.3029343873
 H        -7.4477537697        1.8970109029       -7.5659855201
 H        -9.0215894679        0.4992565530       -8.9826438027
 H        -7.7859636421       -0.9130378235       -8.9174522658
 H        -9.3907205414       -0.6324417157      -13.6949460919
 H       -10.6857430662        0.5597914565      -13.2976089373
 H       -11.8079749585       -1.4546932452      -13.8945825097
 H       -11.9887048363       -1.1463115414      -12.1765079894
 H       -13.5458529223       -4.7665303421       -9.6247475947
 H       -12.8607993127       -3.1554804871       -9.3526489597
 H       -11.5755175893       -5.7704988098       -8.2908939669
 H       -12.8988328205       -5.1405840611       -7.5486725797
 H       -10.0722933094       -5.3280199307       -3.0532436495
 H       -11.2706017115       -5.6110322218       -4.2719515037
 H       -11.4045779701       -2.9659550777       -2.7581539819
 H       -11.7480037105       -4.2412201511       -1.8336555240
 H       -15.6839231779       -1.0232987381       -4.1973323981
 H       -14.6000155915       -1.7863972951       -5.2781253368
 H       -13.9988865398        0.9707190095       -4.0890787242
 H       -14.6862795071        0.6867513152       -5.6526192638
 H       -12.6756135943        3.2764864272       -7.9851130978
 H       -11.7192847229        2.3158095701       -9.0942673509
 H       -10.6360919647        4.3164121438       -9.3463283216
 H        -9.5517531944        3.7469769952       -8.1026525332
 H        -9.3860358635        6.6226860459       -4.2567851516
 H        -9.0355942224        5.0501451474       -3.5833955026
 H       -10.5661970772        5.2830673990       -4.3839047932
 H        -9.2847876128        6.4134113079       -9.1526822260
 H        -8.2764492464        5.1283620542       -8.4928082213
 H        -7.9478487455        6.8852904387       -8.1674434164
 H       -10.6403514727        8.0633746137       -7.3644759901
 H        -9.1930395099        8.1509457006       -6.4541601649
 H       -10.8303606460        7.5112472516       -5.8242512531
 H       -12.6620364287        3.8488372695       -5.4989609006
 H       -13.6156157246        2.7838914293       -4.5921027104
 H       -13.8057382590        2.7306881201       -6.2842958993
 H       -10.4579789650        2.6959999398       -4.5511032480
 H       -10.3217860817        0.9525085699       -4.6337320485
 H       -11.5512565928        1.6639442602       -3.6120370335
 H       -16.4978672153       -3.0243138910       -2.7914153049
 H       -15.8043234104       -4.5980647866       -2.9075723041
 H       -15.7362921291       -3.6022500197       -4.2014234687
 H       -14.3285934731       -4.1744681555       -0.8429426432
 H       -14.9349175469       -2.6738658582       -0.7194111548
 H       -13.1979155260       -2.8556528688       -0.8243432058
 H        -9.4828761562       -6.4221273539       -7.4251299829
 H       -10.6776686000       -6.7223700616       -6.3163679047
 H        -8.9405848592       -6.6207130736       -5.8474825606
 H        -7.5356096782       -4.3371593959       -6.2673493381
 H        -8.4731932644       -2.8679011445       -6.7579631957
 H        -8.4685574729       -4.2623298606       -7.9193268050
 H       -13.7174319063       -2.7299606334      -11.1527158272
 H       -14.0521025632       -4.2127357965      -12.2540718192
 H       -13.6373635597       -2.6784303027      -12.9531917780
 H       -10.7681522239       -5.2898553905      -13.2957315727
 H       -12.2182919757       -4.5369952208      -14.1224181043
 H       -12.2663675849       -5.8968846316      -12.8845199319
 H        -7.2340662797       -0.0049716239      -13.7420901963
 H        -6.3044104709        1.0459602505      -12.8017760882
 H        -7.8170435845        1.5023635568      -13.0950855625
 H        -7.9754993783       -2.1611527993      -11.3855515927
 H        -6.5502008472       -1.5151950641      -10.6151493565
 H        -6.6486475693       -1.7784222422      -12.3880086339
 H        -3.9866651170       -0.8443484241       -4.5839127425
 H        -5.1301874908       -1.8870988865       -5.5773452851
 H        -5.7012229783       -0.8305988649       -4.2209614783
 H        -3.9727170555        1.5673434816       -5.2843155889
 H        -5.6655561971        2.0019666432       -5.2455096099
 H        -4.7305031419        2.0245078864       -6.6942625909
 H        -0.5802305630       -3.0427777324       -6.9906739794
 H         0.9966877196       -3.7535566232       -7.2111627842
 H        -0.1068810253       -3.4447521383       -8.5719485702
 H         2.1858814381       -0.2148376844       -6.5727268740
 H         1.9981684817       -2.0105662705       -6.1101522011
 H         0.7989999170       -0.5553221717       -5.8139386049
 H         5.0054989291        2.5876908265      -12.5791495128
 H         3.3514471559        2.1345094462      -13.2671168725
 H         4.5974598625        1.7947788393      -14.0961137970
 H         3.1162138849       -1.5390776297      -12.5572533105
 H         3.8666782196       -1.0663562256      -14.0796427768
 H         2.4814845443       -0.1933362872      -13.5556567323
 H         8.1397927921       -3.5214367145      -10.4319966816
 H         7.7709803425       -4.9656314223      -11.3742537119
 H         6.6488149797       -3.5632750556      -11.2163830768
 H         9.9167347552       -4.7209573523      -13.0791680782
 H        10.5546854969       -3.3435827326      -12.1270080526
 H        10.2811751546       -3.1416704428      -13.7745556774
 H         4.4284963969       -3.1254710235      -19.1369277367
 H         4.6681501816       -2.2450863054      -17.6395195958
 H         3.5120568025       -3.5771677806      -17.5599391058
 H         6.4570755824       -6.2428189541      -18.1054764447
 H         5.7996050660       -5.4162836064      -19.5540342921
 H         4.6601729902       -5.9626035779      -18.4535983018
 H        14.2175686918       -3.1196778255      -18.9002386470
 H        13.1320815079       -3.0242925029      -17.4586844680
 H        13.2394196264       -1.6971411024      -18.7410069659
 H        13.0280722858       -3.3465850206      -21.1392196012
 H        11.5462197881       -2.3593643116      -20.8418579576
 H        11.4652389172       -4.1716590598      -21.2623640231
 Na       -9.8369163611       -1.0905830575       -6.6522280658
 Na        8.8096522516       -2.1086651203      -15.9801739848
