232

 C       -22.5912690936       -7.1891788749       -3.7242494231
 C       -21.3802179121       -6.1512797748       -3.6102014563
 O       -20.2200508557       -6.5347869684       -3.5972727357
 C       -21.7317141675       -4.5810909717       -3.5861795782
 C       -20.3876712630       -3.8929803940       -3.3113645687
 O       -19.8074744839       -4.0955579245       -2.2524076475
 C       -19.7708773221       -2.9260728359       -4.2677741535
 C       -18.5618428145       -2.3300209591       -3.6194631316
 C       -17.5053867295       -3.3511003031       -3.3450573942
 O       -17.4708949073       -4.3675881663       -3.9575672449
 C       -16.3507697563       -3.0719597471       -2.3141952769
 C       -16.1840088571       -4.3679003093       -1.4122029639
 O       -17.0809550627       -4.7194046251       -0.6490072565
 C       -14.8951731412       -5.1379069531       -1.5493520121
 C       -15.0238527839       -6.5444147534       -0.9366365481
 C       -15.3040318604       -7.5501637728       -2.1145338530
 O       -16.4044736101       -7.5528380696       -2.6719742177
 C       -14.1711044664       -8.5620097711       -2.4438481523
 C       -12.8318901263       -7.6478575515       -2.5205966822
 O       -12.8791321379       -6.5855747494       -3.0988955621
 C       -11.5573327483       -8.1186404533       -1.8629241117
 C       -10.5328332725       -8.6451676825       -2.8907957706
 C        -9.4050945153       -9.3548269664       -2.1590632046
 O        -9.5397806161       -9.7427293364       -1.0141027450
 C        -8.2328804732       -9.7941842002       -3.0135548741
 C        -7.4003736232       -8.6080257295       -3.5185360051
 O        -7.0269663262       -7.7603612136       -2.7500667861
 C        -6.9231756340       -8.6835914070       -4.9808761605
 C        -5.9715132697       -7.5485371891       -5.4082951201
 C        -6.6239645801       -6.8039436012       -6.6100554322
 O        -7.4841255136       -7.3471320027       -7.2593009567
 C        -5.9988689374       -5.3211636635       -7.1248659167
 C        -4.8817686492       -5.9801770850       -7.9913594499
 O        -4.0723218022       -6.6597059209       -7.3827291338
 C        -5.1074433625       -6.1054611292       -9.5103286170
 C        -4.6474639510       -4.8645721219      -10.2653325302
 C        -4.3229685076       -5.0267349095      -11.7205575181
 O        -3.3378884428       -5.6380871281      -12.0943986019
 C        -5.2715050901       -4.3160557058      -12.7144046968
 C        -4.7376654535       -2.9165597016      -12.6958112260
 O        -5.2952051404       -2.0031381896      -12.1354405906
 C        -3.3332412176       -2.6846760755      -13.1432445997
 C        -2.6490969370       -1.3482362958      -12.6734477323
 C        -1.0860828061       -1.1519293253      -12.9000884016
 O        -0.6347483713       -0.2566295559      -13.5823946539
 C        -0.1177040142       -2.2176923779      -12.3016026378
 C         1.3376979885       -1.6627262371      -12.1665507148
 O         2.2121822959       -2.3822578072      -12.5940497316
 C         1.7101817797       -0.3144568715      -11.4567250849
 C         3.2091539724       -0.0446352722      -11.2963511478
 C         3.6870943743        1.0715958932      -10.3881419332
 O         2.9310614573        1.8162752870       -9.7236145596
 C         5.1834767454        1.6013999956      -10.3350296752
 C         5.2642741805        2.7953760499      -11.4097269818
 O         5.5907771983        2.6643335828      -12.5844184471
 C         4.8862604056        4.1635264476      -10.8908010333
 C         6.1729087625        5.0152138058      -11.0559267465
 C         6.0629733495        5.9388094090      -12.2908105720
 O         5.5185064156        5.4398594257      -13.2499579671
 C         6.7719595138        7.3517101875      -12.4866182261
 C         7.3429347609        7.2949162219      -14.0119602289
 O         7.1383859675        8.1789945615      -14.7841471858
 C         8.2797914287        6.1392031860      -14.4053494875
 C         8.4882707588        6.0083101541      -15.9446767025
 C         7.2697787020        6.0567133031      -16.9155980524
 O         6.3091034763        5.4382471692      -16.5204220348
 C         7.2106333736        6.9138287020      -18.2208709226
 C         8.3684537335        6.2586809423      -19.1572226135
 O         9.4764696293        6.0694213027      -18.6616551713
 C         8.1021543549        5.9575146267      -20.6605922877
 C         9.0523626605        4.8285629806      -21.0707775675
 C         8.6615482772        3.5184844690      -20.2645238845
 O         7.4833631374        3.3088841455      -20.0486970467
 C         9.7479358546        2.3711440904      -20.1616889745
 C         9.2383252518        1.0901923634      -19.3511233446
 O         8.5437400335        0.2610641434      -19.9545445916
 C         9.6938357039        0.8879772343      -17.9017655602
 C         8.6236192603        0.0270703105      -17.1378290892
 C         7.5232613761        0.9947386697      -16.8068845878
 O         7.7304683196        1.9163612020      -16.0139819563
 C         5.9846364590        0.5473567562      -17.0981564222
 C         5.1028340272        1.8290888219      -17.3856389614
 O         4.9179787316        2.7307621559      -16.5370334767
 C         4.4287373208        2.0889931309      -18.7126300641
 C         5.8880323737       -0.4842500851      -18.2128018636
 C         5.3804595399        0.0445661304      -15.6975034069
 C         9.9185200939        1.8251151576      -21.5659070165
 C        11.0773405934        2.9004192810      -19.6270950195
 C         5.8256808915        6.8271897188      -18.7596891430
 C         7.6782386773        8.4684910456      -17.9624110242
 C         5.6506266185        8.5058257704      -12.3715778363
 C         7.8076387203        7.6000583154      -11.4341655566
 C         5.4992156359        2.0949583015       -8.9104860551
 C         6.0293811264        0.4771673568      -10.9516962811
 C        -0.6084630184       -2.4077700400      -10.8429324455
 C        -0.1755197339       -3.6094492594      -12.9069052489
 C        -5.1449403343       -5.0206539339      -14.1272348262
 C        -6.7165221562       -4.3624074967      -12.0955122358
 C        -7.0898429418       -4.5139686151       -7.8575590658
 C        -5.5107889738       -4.5002794085       -5.9189974351
 C        -7.1458207233      -10.6729750180       -2.2525192305
 C        -8.8562845264      -10.5750681310       -4.2552483260
 C       -14.2506408228       -9.6396644870       -1.2933867143
 C       -14.4131769851       -9.2787310330       -3.8803929068
 C       -15.1767069205       -2.8440950685       -3.2107382217
 C       -16.7523649995       -1.8754288140       -1.4558396224
 C       -22.3467170698       -4.3986450054       -5.0416805426
 C       -22.7163031724       -4.1453834744       -2.4320258117
 H       -22.8040014431       -7.5006218049       -2.7415821805
 H       -22.4053289368       -7.9684100168       -4.3921227140
 H       -23.5040925615       -6.5882912542       -3.9415448910
 H       -20.5672219117       -2.2517305581       -4.5484858332
 H       -19.5492929733       -3.2522452477       -5.2810561448
 H       -18.8835628590       -1.8280562291       -2.7294710196
 H       -18.0097762910       -1.5756763444       -4.1686825840
 H       -14.1084613447       -4.3892377630       -1.2824443962
 H       -14.8077457994       -5.3073471691       -2.6473923063
 H       -15.8934007674       -6.5618463865       -0.2671238109
 H       -14.0711301176       -6.8007915899       -0.3864172844
 H       -11.8309266821       -8.9592048621       -1.2272969367
 H       -10.9454067914       -7.3940551124       -1.2454955078
 H       -10.0524809642       -7.9023974665       -3.5712986866
 H       -10.9815379467       -9.2526633101       -3.6496965899
 H        -7.8241405528       -8.7045879545       -5.6436966134
 H        -6.3533469075       -9.6393106929       -5.2196484278
 H        -4.9970393473       -7.9613887842       -5.6807253788
 H        -5.7247326044       -6.8507504286       -4.5098549405
 H        -6.2085672433       -6.2045809233       -9.6192813996
 H        -4.7526258997       -6.9881458672       -9.9408779153
 H        -3.5636447008       -4.6396125700       -9.8143272477
 H        -5.2036148873       -3.9664378203       -9.9701643238
 H        -3.4747864958       -2.8139427263      -14.1525710011
 H        -2.7861197558       -3.5852245869      -12.8870404144
 H        -2.8764606077       -1.1838561165      -11.6444081007
 H        -2.9720978430       -0.4635619317      -13.3207431460
 H         1.1497032517       -0.3960686996      -10.5408376411
 H         1.2719840719        0.5612401207      -12.0310988261
 H         3.5552923378        0.0556652297      -12.3231194418
 H         3.6567210231       -0.9885337912      -10.9811024411
 H         4.5443063152        4.0931024452       -9.9261465137
 H         4.2124489752        4.5759056701      -11.5843727144
 H         7.0691822181        4.4181194828      -11.2356408518
 H         6.4168495772        5.6134028566      -10.1886548479
 H         7.8663334046        5.2835878535      -13.8426141349
 H         9.2732481485        6.2812783929      -14.0086153978
 H         9.1306219460        5.1642443737      -16.2825667869
 H         9.0964536079        6.9320484783      -16.2435313337
 H         8.2839229025        6.7238288065      -21.4197181513
 H         7.0501883523        5.5359242441      -20.6699208016
 H        10.0904267387        5.0115700110      -21.1487410917
 H         8.6475094547        4.5148681503      -22.1100793178
 H         9.7933810759        1.8295792926      -17.3459297895
 H        10.5044839279        0.1659197240      -17.7901609003
 H         8.9726735053       -0.2323161676      -16.1877823004
 H         8.3309538480       -0.8854442291      -17.6813367501
 H         4.9328116003        1.9417689652      -19.6358924103
 H         3.9901313675        3.1056664419      -18.6690899619
 H         3.5735212882        1.3343657019      -18.7092481465
 H         4.9206216312       -0.6806856165      -18.5707942851
 H         6.2374869746       -1.4386657189      -17.8267024909
 H         6.3528630542       -0.1976380265      -19.1234131504
 H         4.3608501014        0.3343890314      -15.8958022725
 H         5.6753637669        0.6637728180      -14.8526624191
 H         5.7904389895       -0.9591951052      -15.3636664262
 H        10.6792749821        1.0036412892      -21.6719626312
 H        10.2917070790        2.6554307217      -22.1959942049
 H         9.0082495519        1.5628136851      -22.0383040597
 H        11.8512740730        2.2047500094      -19.4682089398
 H        10.8277706359        3.3696587202      -18.6694076795
 H        11.4197985379        3.6775352543      -20.2849688279
 H         5.1373004732        7.2221049192      -18.0241115342
 H         5.4669995611        5.8579632893      -19.0718034234
 H         5.6932305658        7.5464600414      -19.5043699973
 H         8.7044434622        8.6071995337      -17.8632461719
 H         7.3111977179        8.8815092587      -16.9888743918
 H         7.3732121394        9.0639938124      -18.8272313760
 H         6.1524296528        9.4216644508      -12.8425934602
 H         5.3654575932        8.5730994039      -11.3352123503
 H         4.8325084099        8.3224621357      -13.0881832586
 H         7.3598863140        7.9446034272      -10.4968950135
 H         8.5704329289        8.3216698169      -11.6852949234
 H         8.3867196044        6.7046099709      -11.2002469207
 H         6.3899615028        2.7043439711       -8.9304440732
 H         5.6552904358        1.2244999368       -8.2514678466
 H         4.6157931393        2.7423014167       -8.4864932217
 H         5.8795433253       -0.5406969297      -10.5620778750
 H         7.0838635500        0.6849773131      -10.6993334627
 H         5.9825885808        0.1810956568      -12.0371514162
 H        -0.6205448395       -1.5164876091      -10.2362211074
 H        -0.0168208035       -3.2232801844      -10.3323791242
 H        -1.6341911241       -2.7821116988      -10.9705058751
 H        -0.7434636087       -4.3050513329      -12.3769400187
 H         0.8173740370       -3.9309151614      -12.9212661453
 H        -0.5329744357       -3.5121388044      -13.9315540430
 H        -5.8729971220       -4.5751719752      -14.8426308898
 H        -5.1996639119       -6.1356403243      -14.0194872308
 H        -4.1656715201       -4.7842634474      -14.6355445475
 H        -7.4358942761       -4.2976652412      -12.9696224746
 H        -6.8003449796       -3.5223497622      -11.3501592238
 H        -6.8729360458       -5.3474113849      -11.6195037826
 H        -7.8628829072       -5.1884217300       -8.1375927778
 H        -6.7083907797       -3.9306396160       -8.7384023076
 H        -7.5592906969       -3.8365816086       -7.0648632247
 H        -6.2462211594       -4.3460102282       -5.1433456118
 H        -5.3084146213       -3.5081539857       -6.2682820717
 H        -4.5455285082       -4.7245329278       -5.4421062384
 H        -7.6950417663      -11.5146590776       -2.0339698279
 H        -6.8925492044      -10.1788587429       -1.3218007747
 H        -6.3107266508      -10.8344133271       -2.9554308769
 H        -9.7703057039      -11.1824064829       -3.9666174768
 H        -8.1274467967      -11.2095976220       -4.7348430445
 H        -9.1027176731       -9.7754425200       -4.9490660225
 H       -13.8427026445       -9.2172665684       -0.4244699436
 H       -13.6254104494      -10.5267046130       -1.5736531417
 H       -15.2605240869       -9.8142496825       -1.2229114762
 H       -14.3161014546       -8.6114468300       -4.6497890473
 H       -15.4235486093       -9.6220327826       -3.9716890900
 H       -13.7693638589      -10.1248579844       -4.0339474866
 H       -15.2855162483       -3.4383932987       -4.1352739766
 H       -14.2616160027       -3.1475374287       -2.7205767466
 H       -14.9534447258       -1.8332545364       -3.4776874788
 H       -17.7226352220       -1.9935984820       -1.1098528664
 H       -16.5289408220       -0.9165426176       -2.0177009426
 H       -16.1159226578       -1.7360543702       -0.6077739376
 H       -21.7374433239       -4.8909964786       -5.7263345035
 H       -22.5069264043       -3.4144803180       -5.3416099679
 H       -23.4045820950       -4.7923597089       -5.0861797239
 H       -22.8828432125       -3.0311217587       -2.5763428663
 H       -22.2982400153       -4.2444447263       -1.4460752792
 H       -23.6638452293       -4.5646153030       -2.5332771606
 Na      -18.2865197984       -6.1055390156       -2.3105267127
 Na        6.2232501822        3.4742529416      -14.8847923540
