232

 C        13.3820081273       -4.9336376949      -19.7653268558
 C        11.9402198259       -4.4315001700      -19.6696838105
 O        11.0297429541       -5.2539062629      -19.7393366718
 C        11.6764829952       -2.9334403799      -19.3858141701
 C        10.3340461789       -2.8323831421      -18.5413105096
 O        10.3919062110       -2.3336093231      -17.4501000813
 C         9.0420696333       -3.2295129190      -19.1364923825
 C         8.1347079078       -4.1510565024      -18.2983055486
 C         6.7613302697       -3.7513204443      -17.8975256553
 O         6.5851199520       -2.5693014223      -17.6080216271
 C         5.5524907587       -4.6945683102      -17.7757936594
 C         5.3761181729       -5.2496188411      -16.3686785773
 O         5.4501447173       -6.4109546627      -16.1661971826
 C         4.9938104576       -4.2255397576      -15.1882557925
 C         5.9273553294       -4.4891597600      -14.0766519131
 C         7.2795096275       -3.9730058885      -14.0939066806
 O         8.0004727967       -4.1199139761      -15.0738996955
 C         7.9761614770       -3.3746094233      -12.8511292790
 C         8.2860093431       -1.7546595291      -13.1123218969
 O         8.7512772992       -1.3649280700      -14.1814565312
 C         8.2359585428       -0.7731886938      -11.9925771837
 C         7.3006738644        0.4565291037      -12.2687284709
 C         5.8450089153       -0.0696290888      -12.5331239888
 O         5.6794159630       -1.2032639990      -12.9199842686
 C         4.6841017948        0.9806666215      -12.5185777767
 C         4.0658030617        0.8346444871      -11.0134914348
 O         4.7650137252        1.1857903258      -10.0981434165
 C         2.7025170232        0.1566221592      -10.8093171144
 C         2.2129510133        0.0897996863       -9.3566930074
 C         1.8170835933       -1.3716146473       -8.9096830683
 O         2.1189899097       -2.3085340753       -9.5940376922
 C         1.0987718505       -1.6446911730       -7.3689150080
 C        -0.0977881092       -0.5486581056       -7.2633362761
 O         0.2209353434        0.6321630951       -7.3377275243
 C        -1.4886232442       -1.0730358621       -6.9463174713
 C        -2.5053432082       -0.0371364403       -6.4329150033
 C        -4.0701464999       -0.2228415103       -6.9727171870
 O        -4.2562484714       -0.7317835596       -8.0618815591
 C        -5.2375362650       -0.1191849448       -5.8982819576
 C        -6.7809214527       -0.0891519832       -6.4411204428
 O        -7.6743701395       -0.7536612897       -5.9951424202
 C        -6.9873584052        0.9752383935       -7.5838179909
 C        -7.7424372637        0.3850953621       -8.8115470660
 C        -7.2313161619        0.7743783142      -10.2284879559
 O        -6.7318794906        1.8366353253      -10.3629760533
 C        -7.6537499991        0.0244911518      -11.4532735764
 C        -9.1663689391       -0.2462113327      -11.4663538455
 O        -9.7833192026       -0.2925919141      -10.3766927588
 C        -9.8662667214       -0.3075361388      -12.7798404544
 C       -11.0844793020       -1.1392566186      -12.4723896620
 C       -10.7465639281       -2.6816311978      -12.2726652421
 O        -9.5995103544       -3.0128258065      -12.3279378873
 C       -11.8927202736       -3.8198954599      -11.9569582313
 C       -11.6391193823       -4.2212273646      -10.5145552349
 O       -10.6164700844       -4.8074396516      -10.2145700703
 C       -12.7025389051       -3.9299368187       -9.3743494157
 C       -12.3092368877       -4.7534886525       -8.1301300032
 C       -11.1797101716       -4.1062603040       -7.3821896980
 O       -11.0146335098       -2.9121722986       -7.4766873260
 C       -10.0023344169       -4.8481299149       -6.5990335162
 C       -10.1546799595       -4.1619667320       -5.0292123400
 O        -9.6780340983       -3.0574391325       -4.7072165953
 C       -10.8351272584       -5.0076435568       -3.9674505752
 C       -11.7175870745       -4.1062685826       -3.1260730878
 C       -13.2168895816       -3.9999696174       -3.4234931809
 O       -13.6348708518       -4.4190706053       -4.4662310206
 C       -13.9868900490       -3.1716958039       -2.4593985475
 C       -13.8649508224       -1.6347357006       -3.0116854291
 O       -13.4732156702       -0.7933243234       -2.2350089711
 C       -14.4206286448       -1.2825426601       -4.4251849992
 C       -14.0036635682        0.0983052302       -4.8904737683
 C       -12.5781037945        0.4101501962       -5.2832331732
 O       -11.6541509333       -0.2954317389       -5.0499101198
 C       -12.1700393736        1.7674974039       -5.9168349199
 C       -11.5101469612        1.3171188651       -7.3269040163
 O       -11.1036992999        0.2027993476       -7.5332047587
 C       -11.3897026738        2.3920932125       -8.4653770431
 C       -10.3753913792        3.4773269409       -8.2215566515
 C       -10.8971636258        4.8316935815       -7.7824745213
 O       -12.0725916041        5.1528215355       -7.8942448560
 C        -9.7586521925        5.9439977509       -7.3452176059
 C        -9.1578786495        5.5891037733       -5.8831902546
 O        -8.7098725865        4.4606882123       -5.8443925749
 C        -9.4356014162        6.4566408751       -4.7909867335
 C        -8.5179032287        6.0698448032       -8.4018825870
 C       -10.4662134537        7.2585883888       -7.4598672335
 C       -13.3921472409        2.5863018878       -6.2164645305
 C       -11.1384052396        2.5364698788       -4.9435845474
 C       -15.5392405785       -3.6063600980       -2.5232786072
 C       -13.6130176539       -3.2212130101       -0.9426604284
 C       -10.0628878559       -6.3780370802       -6.5070563630
 C        -8.5913941026       -4.4773583436       -7.0533633677
 C       -13.3182719669       -3.2626409619      -12.2237491888
 C       -11.7279481147       -4.9375039225      -13.0398000384
 C        -7.0781252080        0.7377698405      -12.6975742266
 C        -6.9115964621       -1.4128626920      -11.3841340256
 C        -5.1686766053       -1.2661111193       -4.8527313341
 C        -5.1020973664        1.2820412369       -5.2543080274
 C         0.5520161005       -3.1036956458       -7.4481883006
 C         2.1588528494       -1.3682620136       -6.2996831059
 C         5.1739326881        2.4385809196      -12.6563703404
 C         3.7723746102        0.5619334451      -13.6151956879
 C         7.1769917344       -3.6009439016      -11.4805032287
 C         9.4000535832       -3.9206198393      -12.8443941982
 C         4.4206600319       -3.7745456103      -18.2985581226
 C         5.6697840990       -5.9294864566      -18.7371688994
 C        12.7698697140       -2.1607284339      -18.6385393209
 C        11.2792290481       -2.3010539449      -20.8443369308
 H        13.9569582389       -4.1683652644      -20.3795789456
 H        13.5196195886       -5.7972506243      -20.4296085999
 H        13.8854465856       -4.9761317673      -18.7414975376
 H         9.2063817030       -3.5992142128      -20.1542265980
 H         8.6236708332       -2.2586281994      -19.3837462905
 H         8.7421975361       -4.1200390742      -17.2979753171
 H         8.1480847167       -5.1720508230      -18.6833075036
 H         3.9300068188       -4.4830860827      -14.8827612097
 H         5.2855915251       -3.2820206663      -15.6252640588
 H         6.1010273238       -5.6660537527      -14.0419629146
 H         5.4262051673       -4.3070168532      -13.1456782093
 H         9.2153960974       -0.3354175611      -11.8202727985
 H         7.7706142914       -1.1230836726      -11.0929333127
 H         7.5511258033        0.8967951010      -13.2503287002
 H         7.5991828316        1.2210591766      -11.4893264657
 H         2.8047948590       -0.8040886810      -11.2419551123
 H         1.9690435449        0.7208233613      -11.3720534407
 H         1.4975375226        0.9389923048       -9.1733851847
 H         3.0166147210        0.3016706162       -8.6471721642
 H        -1.3706221411       -1.8451012947       -6.1095585023
 H        -1.8510462763       -1.6734175143       -7.7769987497
 H        -2.1835756708        1.0000018554       -6.7286998531
 H        -2.4361791219       -0.1156375963       -5.3529488654
 H        -6.0915494597        1.3003000769       -8.0171360558
 H        -7.3770434351        1.8892648183       -7.1009858317
 H        -8.6813613173        0.8007380516       -8.8325208646
 H        -7.9267863777       -0.6229721694       -8.6980602995
 H        -9.2083376130       -0.7904516228      -13.5382021756
 H       -10.1106835834        0.7133386615      -13.1764950135
 H       -11.8930720730       -1.2666764098      -13.2518023434
 H       -11.6090424125       -0.7680753987      -11.6308588864
 H       -13.6495749346       -4.3602379339       -9.6699725982
 H       -12.7880769055       -2.8509030604       -9.1939298827
 H       -12.0316934409       -5.8443872060       -8.2489971388
 H       -13.2565978286       -4.6913859456       -7.5481061773
 H       -10.0574364628       -5.2214978513       -3.2550754221
 H       -11.2565563977       -5.9351302171       -4.4039982708
 H       -11.2498565493       -3.1184124353       -2.9103534749
 H       -11.7663210208       -4.5356429942       -2.0357277735
 H       -15.5127409434       -1.2084045250       -4.5019103554
 H       -14.1186640135       -2.0283519216       -5.1509867565
 H       -14.0680282788        0.9131264007       -4.1213516572
 H       -14.6127757154        0.3483227961       -5.8260591951
 H       -12.3356070913        2.8756321575       -8.4918519847
 H       -11.1662162387        1.8497758011       -9.3026896085
 H        -9.7101788510        3.7258922890       -9.1052992228
 H        -9.5452440085        3.2251888477       -7.4570091002
 H        -9.1102662074        7.5115949790       -4.8957715950
 H        -9.1151701584        6.0678127474       -3.8174869086
 H       -10.5157985403        6.5806709052       -4.8259443215
 H        -8.9868158338        6.2309272703       -9.4234581182
 H        -7.8219705822        5.2491175206       -8.3035337736
 H        -7.9037492051        6.8759991868       -8.1744535467
 H       -10.8602986508        7.3386860399       -8.4768306004
 H        -9.9491794726        8.2279662802       -7.2691383587
 H       -11.3018126295        7.2058656466       -6.7172236998
 H       -13.1149154749        3.5989324717       -6.7357840679
 H       -14.0113435968        2.8610431767       -5.3582311897
 H       -14.0951135234        2.0541643610       -6.9612233560
 H       -10.8174668447        3.4121784343       -5.5005163542
 H       -10.3086884407        1.9599365164       -4.6150906447
 H       -11.7131660745        2.9274713045       -4.0996125338
 H       -16.2061630681       -3.1255903169       -1.8443643976
 H       -15.5645345861       -4.6647690258       -2.1599323851
 H       -16.0990513969       -3.5858832873       -3.4425735314
 H       -13.5831089399       -4.2605449404       -0.6730031051
 H       -14.3827218761       -2.6180501441       -0.4570653855
 H       -12.7067470494       -2.7235367307       -0.5891140930
 H       -10.3676477225       -6.7503575388       -7.4807259942
 H       -10.8850886605       -6.6566392855       -5.9517490754
 H        -9.2612047731       -7.0391469606       -6.1712304475
 H        -7.7936147616       -5.0790488969       -6.5111038968
 H        -8.4123122709       -3.5084623786       -6.6987321098
 H        -8.5088457852       -4.4183038225       -8.0712257553
 H       -13.6739811174       -2.6625988719      -11.3865310545
 H       -14.0596331562       -4.0940055395      -12.2881595026
 H       -13.1829686535       -2.6745657225      -13.1029928446
 H       -10.6983646723       -5.1218845620      -13.2316096111
 H       -11.9930980920       -4.6511293545      -14.0878003024
 H       -12.3441420574       -5.8115982808      -12.8505738079
 H        -7.1673274833        0.0913262697      -13.5632526776
 H        -6.0237124558        1.1152712802      -12.6264639539
 H        -7.7338665995        1.5090556228      -13.0027168279
 H        -5.9250529923       -1.3125343879      -11.1144793033
 H        -6.9248808344       -1.8399775331      -12.4033969834
 H        -7.4325209669       -2.0932244074      -10.6175801951
 H        -4.2489168493       -1.4950890596       -4.2858901742
 H        -5.3701672152       -2.2045144942       -5.4164335745
 H        -6.0783723813       -1.1973569833       -4.2412458662
 H        -5.0301983063        1.2959285067       -4.1771161947
 H        -5.9655957429        1.9916908469       -5.3849866502
 H        -4.3408128550        1.8879009795       -5.6932154745
 H        -0.0168768545       -3.2292546985       -6.5247445589
 H         1.4389112959       -3.8481227572       -7.6606073742
 H        -0.1497840370       -2.9634207712       -8.2893241338
 H         2.7253058062       -0.5485490167       -6.8010907822
 H         2.7447246937       -2.2828126993       -6.0357624013
 H         1.5831481453       -1.1564503376       -5.4063233754
 H         5.8403989502        2.8861614681      -11.7987473837
 H         4.3698637945        3.0630388430      -12.5330583440
 H         5.7232352770        2.5306522916      -13.5779384722
 H         3.6533807692       -0.5121433983      -13.7212027366
 H         4.1323464559        0.8951303883      -14.5819903374
 H         2.7556459236        0.8839780804      -13.5079973945
 H         7.8622052351       -3.1908331671      -10.7380985484
 H         7.0291710683       -4.7071070026      -11.2576589518
 H         6.1345010110       -3.2807516706      -11.4739716894
 H         9.3743451925       -4.9483583898      -12.7175326998
 H         9.9835373164       -3.6055872553      -11.9561243644
 H         9.8469535778       -3.7726751041      -13.8400258179
 H         4.5702166874       -3.4840698262      -19.2531595115
 H         4.3816916352       -2.8766948337      -17.7376172575
 H         3.4083796848       -4.1880489236      -18.3944927229
 H         6.5335539026       -6.5856097346      -18.6479661832
 H         5.6915350746       -5.6179126996      -19.7264615660
 H         4.8343065185       -6.6211534142      -18.5417989865
 H        13.7225291336       -2.1249696680      -19.1621280358
 H        12.9243410480       -2.4654108173      -17.6730301718
 H        12.3520637243       -1.2218129119      -18.4877886752
 H        12.3082418712       -2.0925698320      -21.2248621095
 H        10.8424381722       -1.3693771248      -20.6457278088
 H        10.5835365638       -2.9188754415      -21.4395560126
 Na      -10.0697506675       -1.1794042314       -6.3493964283
 Na        8.5251204152       -2.0821641668      -16.3032955516
