232

 C        13.4525515382       -4.3047011483      -20.6256211558
 C        11.9223440138       -4.0635451789      -20.2324680488
 O        11.0763725282       -4.8990927326      -20.4065215823
 C        11.4077621202       -2.6133923472      -19.6913559960
 C        10.1080931607       -2.7786957102      -18.8869635390
 O        10.1280239262       -2.6662030982      -17.6360265473
 C         8.7750535600       -3.1426777028      -19.5286019993
 C         8.0406369569       -4.3283226178      -18.8403519324
 C         6.6546403197       -4.0284928218      -18.2432233823
 O         6.4700292928       -2.8591015758      -17.7275378952
 C         5.5022764936       -4.9739651668      -18.0441190887
 C         5.4995979423       -5.3576661738      -16.4683247877
 O         6.1018541795       -6.3500625184      -16.1789495451
 C         5.0305131754       -4.2958202347      -15.4714848989
 C         5.7918962955       -4.2169744302      -14.1815740394
 C         7.2921422829       -4.0187878213      -14.0890855619
 O         8.0821294746       -4.2073225371      -15.0067369049
 C         7.7982144013       -3.3890349880      -12.7303434585
 C         7.8178287704       -1.8639213957      -12.9902774078
 O         7.9901312444       -1.3662274525      -14.0818082159
 C         7.8314063727       -0.9671084344      -11.7299416483
 C         7.1197804244        0.3847543551      -11.9464514512
 C         5.6780301319        0.1653917432      -12.3626475829
 O         5.3164916176       -0.8954202381      -12.8588465675
 C         4.6855741525        1.2967275594      -12.0739002984
 C         4.0147850953        0.8932239334      -10.7666320138
 O         4.4126761194        1.4523881501       -9.7482020445
 C         2.8633984594       -0.1263267352      -10.8384101845
 C         2.0417820994       -0.0596770780       -9.5604272348
 C         1.7369634517       -1.4699161770       -8.9637737377
 O         2.0736660368       -2.4266731849       -9.6722594119
 C         1.1946628117       -1.5381796093       -7.4918964895
 C         0.0647308756       -0.4978240066       -7.0519014040
 O         0.2144424495        0.6958925494       -6.8346608699
 C        -1.3823717042       -1.0454162189       -7.0256765597
 C        -2.3300817761       -0.2421787978       -5.9659256245
 C        -3.7462786815       -0.3689703598       -6.3924898281
 O        -4.0299338822       -0.7580768272       -7.5115281734
 C        -4.9160913020       -0.0926760675       -5.4084959593
 C        -6.3482670851       -0.1831304105       -6.2631385026
 O        -7.1852086909       -1.0516820995       -5.9764308275
 C        -6.5581385496        0.8191769585       -7.4335021612
 C        -7.3307137838        0.1174204401       -8.4899371586
 C        -7.2983012219        0.8529329135       -9.8331505093
 O        -7.0353937834        2.0599267091       -9.9592319792
 C        -7.6370305394        0.1467103152      -11.2327677068
 C        -9.1579138870       -0.0718344166      -11.4428296472
 O        -9.9823863533        0.1900821869      -10.6321811633
 C        -9.6203399555       -0.6897266669      -12.7887511229
 C       -11.0117369490       -1.4477321272      -12.8045644743
 C       -10.7025200247       -2.9122063857      -12.2906235180
 O        -9.5466966220       -3.2606897980      -12.2938030760
 C       -11.8810628199       -3.8158263313      -12.0032466430
 C       -11.7252019475       -4.3041836946      -10.3878167643
 O       -10.6172591351       -4.5951855135      -10.0068470123
 C       -12.9319920120       -4.2548013174       -9.3665116318
 C       -12.5579407742       -4.8366795193       -7.9878744818
 C       -11.2628335230       -4.0959679164       -7.3598807732
 O       -11.1021512681       -2.8977464970       -7.4705883429
 C       -10.2333441668       -4.9832989551       -6.6243249224
 C       -10.3940961099       -4.4113075951       -5.0506531711
 O       -10.1500868969       -3.2635446508       -4.7675084078
 C       -10.9006218594       -5.4468091891       -4.0255482206
 C       -11.6121770977       -4.8236135763       -2.7780229856
 C       -12.8217099287       -3.9592806183       -3.2997626257
 O       -13.1592312606       -4.1881209973       -4.4516214992
 C       -13.7390196134       -3.0660237959       -2.3734526976
 C       -13.9141086686       -1.5805766816       -2.9189568347
 O       -13.7081173773       -0.5645085861       -2.2943434095
 C       -14.2065081956       -1.4305090231       -4.4229973226
 C       -13.9919923960       -0.0186837361       -4.9497150640
 C       -12.4939855312        0.3363759678       -5.3697431234
 O       -11.5787624319       -0.4252789832       -5.0931418949
 C       -12.1870955185        1.7333462429       -6.0931448369
 C       -11.4100029697        1.4473209659       -7.3548514630
 O       -10.6835857349        0.4473321846       -7.3942463123
 C       -11.4856341869        2.2619935081       -8.6322792848
 C       -10.4104686576        3.3625595190       -8.4938283314
 C       -10.9186944039        4.7749571929       -8.1338980808
 O       -12.0865814442        5.0722751945       -8.0721920385
 C        -9.8206466124        5.8702993897       -7.7278205924
 C        -9.4109616515        5.6451716688       -6.2410092283
 O        -9.2907602954        4.5051643996       -5.7842093834
 C        -9.2172251023        6.9582222962       -5.3769560703
 C        -8.4591845193        5.7003285979       -8.4984605215
 C       -10.3978916974        7.3444964147       -7.9495828395
 C       -13.3864511155        2.5766424414       -6.4127480083
 C       -11.3150102114        2.5426365486       -5.1588362713
 C       -15.1942925899       -3.7589508416       -2.4811556161
 C       -13.1821782364       -2.9882462297       -0.9059625694
 C       -10.3556799403       -6.5464949649       -6.7222257910
 C        -8.7713651167       -4.6129495489       -7.0899871222
 C       -13.2168458215       -3.0758042821      -12.1724617981
 C       -11.7920224239       -4.9923413399      -13.0733072437
 C        -7.0326324418        1.0811483310      -12.2787443411
 C        -7.0052288731       -1.2655369151      -11.3441937536
 C        -4.9264392291       -1.2143218796       -4.3971129860
 C        -4.7113781295        1.2622961743       -4.7543556943
 C         0.9217469223       -3.0164165749       -7.1265728937
 C         2.4445362042       -0.9983409565       -6.6872216568
 C         5.3213485667        2.6937732235      -11.9209489951
 C         3.6935746933        1.3573927382      -13.3428386933
 C         6.8360266175       -3.7246952957      -11.4845421521
 C         9.3910502051       -3.6620600096      -12.6134089126
 C         4.2230681360       -4.1921420594      -18.5556579205
 C         5.6092758702       -6.2846934174      -18.7946968386
 C        12.5011338575       -1.8382136749      -18.8964993544
 C        11.2063293940       -1.8451825297      -21.0479754599
 H        13.6835494532       -3.5419712638      -21.4199867901
 H        13.8307470471       -5.3499790852      -20.8839844661
 H        14.1187844774       -4.1079100666      -19.7711933528
 H         8.8041271146       -3.2988741049      -20.6205872003
 H         8.0296389747       -2.3491324732      -19.4776363515
 H         8.6204103725       -4.8109765349      -17.9847495874
 H         7.9810806699       -5.2167159711      -19.4619931559
 H         3.9290965316       -4.5291006416      -15.3090359773
 H         5.0675498851       -3.4075817030      -16.0918418086
 H         5.6205615131       -5.1148755953      -13.5165548443
 H         5.1502521549       -3.4342350011      -13.6703321296
 H         8.9019247894       -0.8433611580      -11.5633052308
 H         7.4493208644       -1.3698129791      -10.7974312797
 H         7.7611939510        0.9839087105      -12.6248536957
 H         7.0521200161        1.1242136483      -11.1173879911
 H         3.2606929454       -1.1423548046      -10.9006086485
 H         2.3600618070       -0.0657793728      -11.7377318640
 H         1.0084848391        0.3681510845       -9.5279013371
 H         2.6456653689        0.5779451180       -8.8947053896
 H        -1.4778419098       -2.0698538824       -6.9369133927
 H        -1.8788743182       -0.8967309298       -8.0393026191
 H        -1.9578828826        0.8036285541       -5.8965093109
 H        -2.3284620527       -0.8188876778       -5.0410038814
 H        -5.5709622496        1.2601796666       -7.7148511248
 H        -7.1923059480        1.5470278369       -7.1050555076
 H        -8.3209577494        0.1795980481       -8.2105194372
 H        -7.0266993327       -0.8607365406       -8.5743609648
 H        -8.8314603219       -1.0816662310      -13.4137048087
 H        -9.8035776214        0.3001157685      -13.3431859948
 H       -11.4679225187       -1.4959328304      -13.8126440349
 H       -11.7824605233       -1.0324581769      -12.1465135956
 H       -13.6554785499       -4.9527057333       -9.8373721826
 H       -13.2622247068       -3.2424285130       -9.4039096872
 H       -12.2641795399       -5.8665079203       -8.1344841209
 H       -13.2690073785       -4.6866424640       -7.0943991577
 H        -9.9454878899       -5.9579886889       -3.8196511243
 H       -11.5880656854       -6.0711976380       -4.5642874003
 H       -10.9057745876       -4.0220199174       -2.2796832164
 H       -11.9566460603       -5.6038373295       -2.1200199409
 H       -15.2620069907       -1.5776270251       -4.6081465124
 H       -13.6718560248       -2.2357844422       -5.0232055623
 H       -14.2196438192        0.5601285250       -4.0031620649
 H       -14.6577680874        0.2914096249       -5.8169751919
 H       -12.4190011650        2.6726764627       -8.8287187947
 H       -11.1635469474        1.5708457070       -9.3993751749
 H        -9.7770510207        3.4115674415       -9.4257084006
 H        -9.6049952458        3.0694408645       -7.7073559279
 H        -8.6749100669        7.8202291593       -5.7734913455
 H        -8.8904220324        6.5218201514       -4.4555422391
 H       -10.1807189982        7.4537545002       -5.1046953518
 H        -8.4794502793        5.6801261006       -9.5560854087
 H        -8.0606712210        4.7585741947       -8.2016880420
 H        -7.9117381310        6.6363893433       -8.2174572689
 H       -10.5599645139        7.4781169360       -9.0286340077
 H        -9.6777138921        8.0147628338       -7.4639791088
 H       -11.4030999158        7.5240848862       -7.5561548708
 H       -13.1785076058        3.6301929070       -6.6967238363
 H       -14.0685566088        2.7114908546       -5.4658471776
 H       -14.0452057160        2.2908650046       -7.2597408419
 H       -11.1020916910        3.5386717085       -5.4982361891
 H       -10.3864111277        2.0042763662       -4.9343106733
 H       -11.8584116578        2.5582385760       -4.2728178967
 H       -15.9695714900       -3.0533116792       -2.2077334342
 H       -15.3251236360       -4.6151633027       -1.9134748806
 H       -15.3934062150       -4.1538473323       -3.4663219188
 H       -13.1190335789       -3.9747968526       -0.3812865865
 H       -13.8091362622       -2.3012368902       -0.3760648177
 H       -12.2092508637       -2.5403790115       -0.9987662579
 H       -10.2729373961       -6.8021741537       -7.7627255527
 H       -11.2849988640       -7.0294682999       -6.2931274889
 H        -9.5510539190       -7.0286861664       -6.2232099920
 H        -8.2050121847       -5.2496330403       -6.5589562127
 H        -8.5383864956       -3.5629175959       -6.9491063416
 H        -8.4660665667       -4.8782060043       -8.1001761032
 H       -13.2150720476       -2.3233816546      -11.3824433207
 H       -13.9852098146       -3.7847185889      -12.2134584114
 H       -13.2451876358       -2.6119547678      -13.1794800419
 H       -10.8546061903       -5.6064279454      -13.1380438216
 H       -12.0027078907       -4.5930539195      -14.0788292366
 H       -12.6256373575       -5.7448596794      -12.9413008020
 H        -7.2796238707        0.8258928325      -13.3131975272
 H        -6.0491349281        1.3012092658      -12.0210255590
 H        -7.5533123812        2.0403085206      -12.1754360114
 H        -5.9226613345       -1.1028257396      -10.9968091655
 H        -6.9772516449       -1.5066323600      -12.4065846056
 H        -7.4958460080       -2.0398056854      -10.8234133754
 H        -3.9640157613       -1.2409056098       -3.8089930432
 H        -5.1122801291       -2.2361708411       -4.7365016903
 H        -5.7211493706       -1.0610365136       -3.6133603079
 H        -5.3980796611        2.0553869547       -5.0692442016
 H        -3.7228577633        1.6481872179       -4.9448691248
 H        -4.8360435130        1.2764384223       -3.6437623897
 H         0.1554513788       -3.0050469668       -6.2824410790
 H         1.9038630267       -3.3620215332       -6.8891703219
 H         0.5923526908       -3.5480211184       -8.0806734495
 H         2.2439908578        0.0468010324       -6.3566129046
 H         3.3508393125       -0.8550673878       -7.3099249965
 H         2.6430205882       -1.7695057765       -5.8738812004
 H         5.9196793750        2.8327345106      -11.1115726801
 H         4.5318738190        3.5442086432      -11.8809228702
 H         5.9990092539        2.9016560770      -12.8087677037
 H         3.1777436583        0.4319479572      -13.5888699733
 H         4.2596595915        1.4996380932      -14.2517995065
 H         2.9541809881        2.1382875987      -13.2888101493
 H         7.1202054345       -3.1216845826      -10.5706879599
 H         6.8161326372       -4.7951251596      -11.2921708648
 H         5.8016829083       -3.3498553908      -11.7094671698
 H         9.5316535666       -4.8025336444      -12.5963315521
 H         9.8541941128       -3.3008959831      -11.7140554205
 H         9.8599937050       -3.2142828036      -13.4568748718
 H         4.4169361251       -4.0380960087      -19.6472404855
 H         3.9943634927       -3.2125508240      -18.2095967988
 H         3.3335691555       -4.6946466861      -18.5007156592
 H         6.3356252334       -6.9303628890      -18.3832430358
 H         5.8819861671       -6.0538615500      -19.8570083626
 H         4.6738325996       -6.8141149232      -18.8933810032
 H        13.2052921925       -1.4775097148      -19.5618603778
 H        13.0498879311       -2.5319500491      -18.2369438440
 H        12.1757355407       -1.0265664943      -18.2556174334
 H        12.0733800847       -2.0617673309      -21.6477850241
 H        11.0481016196       -0.7321058723      -20.8865980617
 H        10.2811319239       -2.2848441625      -21.4167157700
 Na       -9.5757585304       -1.0747090850       -5.9854043465
 Na        8.3821995508       -2.3935300608      -16.3928905697
