232

 C        13.2695762093       -3.9447289087      -20.7597759033
 C        11.7521514633       -4.0186900704      -20.4829089196
 O        11.0590152667       -4.9463728185      -20.6173919186
 C        11.1835208065       -2.4910111050      -19.8691591726
 C         9.9766668512       -2.7190132809      -19.0204129749
 O        10.0584268780       -2.5430642182      -17.8515318186
 C         8.7095696550       -3.2363462948      -19.6886252596
 C         8.0780589993       -4.4600964431      -19.0315394082
 C         6.7594927767       -4.0536130930      -18.3490838273
 O         6.7604460373       -3.0726497501      -17.6810536670
 C         5.6063811353       -5.0663790459      -18.1374898271
 C         5.7364200549       -5.2448916229      -16.5515182802
 O         6.3672979291       -6.1914301262      -16.1081422226
 C         4.9835696533       -4.1532022033      -15.6413507294
 C         5.6172282162       -4.3564701937      -14.2355840260
 C         7.0590923806       -4.0008978396      -14.2493018761
 O         7.7879055601       -4.4688305391      -15.0890492117
 C         7.6935271232       -3.3152039158      -12.9040884780
 C         7.6677056466       -1.7019261544      -13.0480808029
 O         7.8572257018       -1.2080308201      -14.1563873914
 C         7.7762504958       -0.9337298572      -11.7868793022
 C         7.0888876737        0.3997803560      -11.7587628874
 C         5.6573815406        0.3219055248      -12.2711665953
 O         5.2687008432       -0.7632635844      -12.6463759904
 C         4.6379016013        1.4525514009      -11.9743061729
 C         3.9610421276        1.0197274568      -10.6061486061
 O         4.3466314111        1.5379455252       -9.5972669468
 C         2.7989398624       -0.0618627879      -10.6590229176
 C         1.6814395143       -0.0261757899       -9.5712057970
 C         1.6402625766       -1.3713492602       -8.9184765635
 O         1.6157839526       -2.3964702087       -9.5464812607
 C         1.4097808710       -1.4805799685       -7.2882453223
 C         0.1657308950       -0.5670593271       -6.9878704708
 O         0.3962624672        0.6354525182       -6.9398263895
 C        -1.2498201857       -1.1094293083       -7.0823088930
 C        -2.2623955674       -0.5072758119       -6.1090378258
 C        -3.7947386707       -0.4773138494       -6.4869527776
 O        -4.0968329180       -0.9998541238       -7.5281958844
 C        -4.8657296712       -0.2461237637       -5.4303192236
 C        -6.3785531242       -0.2393105837       -6.0929791127
 O        -7.1565850534       -0.9895462707       -5.5783511880
 C        -6.6922905992        0.7524317097       -7.2901568534
 C        -7.2171916554       -0.0546045971       -8.5131872351
 C        -7.4041728939        0.9289341521       -9.7159904938
 O        -7.3895897652        2.1267248728       -9.5472193316
 C        -7.5614593723        0.2130355619      -11.1155807990
 C        -9.0565395464       -0.0726313404      -11.4912161747
 O        -9.9654146926        0.4510057303      -10.7657689329
 C        -9.5483251333       -0.6828034107      -12.8042120689
 C       -10.7711482788       -1.4362323787      -12.5515531850
 C       -10.6822370590       -2.9179944540      -12.2803347759
 O        -9.6204857133       -3.4444310984      -12.0403928214
 C       -11.9598609000       -3.7571534576      -11.9910178784
 C       -11.6757674423       -4.0720451487      -10.4449291760
 O       -10.5689994403       -4.4476934208      -10.1022276914
 C       -12.9111774341       -4.1710812908       -9.4645617429
 C       -12.5075213898       -4.6542115947       -8.1037408288
 C       -11.3347416606       -4.0170665201       -7.3500216710
 O       -11.0932680005       -2.8192320774       -7.3604599964
 C       -10.2274429264       -4.9980928156       -6.6378795385
 C       -10.4029999762       -4.4773086533       -5.0177576519
 O       -10.2631989727       -3.3086252383       -4.7096007838
 C       -10.6708330517       -5.5076734715       -3.7897348113
 C       -11.5443059986       -4.6521755239       -2.8323271779
 C       -12.7959423078       -4.0062540973       -3.4652024596
 O       -13.1078941967       -4.1445171218       -4.6203337138
 C       -13.5952261460       -3.1747523749       -2.4468334992
 C       -13.7511427268       -1.6778537591       -3.0705076037
 O       -13.6676591678       -0.8037779721       -2.2423472726
 C       -14.1969904620       -1.4283865796       -4.5222837567
 C       -14.0242335943        0.1046628478       -5.0201712879
 C       -12.5476802178        0.3092441615       -5.4297590297
 O       -11.8028903238       -0.6118204454       -5.2020927106
 C       -12.1088629926        1.6562411249       -6.1500199183
 C       -11.1065841691        1.4720973426       -7.3139570605
 O       -10.1525722321        0.7247434324       -7.2782308776
 C       -11.3330349991        2.3258486919       -8.5611772749
 C       -10.2681351215        3.4004509874       -8.6886079664
 C       -10.8703328168        4.7711983749       -8.2606613887
 O       -12.0422968222        4.9320042931       -7.9676480192
 C        -9.8694779967        5.8958969413       -7.9167433602
 C        -9.4163386437        5.7791602100       -6.3083332108
 O        -9.2655980877        4.6497046732       -5.9288289366
 C        -9.2010571205        6.9730794124       -5.4499896630
 C        -8.5327601201        5.6405593662       -8.6956166139
 C       -10.4142672025        7.2606574056       -8.4054968217
 C       -13.3665368817        2.4453519718       -6.4131222227
 C       -11.3423453615        2.3361976887       -5.0204183248
 C       -14.9563093199       -3.7241196881       -2.1434865273
 C       -12.9784283410       -3.0052310882       -1.0931470033
 C       -10.4602236627       -6.5614699022       -6.7172777116
 C        -8.7807475671       -4.4831236995       -6.8908292725
 C       -13.2895556607       -3.1194362889      -12.2618430091
 C       -11.8571033419       -5.1489690725      -12.7254526408
 C        -7.1262866076        1.0995207124      -12.2968244587
 C        -6.7374751236       -1.1161226524      -11.2703944202
 C        -4.9058454233       -1.1897753485       -4.1703789983
 C        -4.6582769242        1.1847952223       -4.9113572634
 C         1.1433598604       -3.0137200598       -6.9591759144
 C         2.7556310612       -0.9320864615       -6.6168399276
 C         5.4196972568        2.7992132531      -11.9084210932
 C         3.5578675642        1.5672546663      -13.1354181952
 C         6.9090328109       -3.9616055926      -11.6707174792
 C         9.1683482136       -3.7153572148      -12.6015832768
 C         4.3144738797       -4.4117674268      -18.5352793209
 C         5.7966639409       -6.3626538013      -18.8764394690
 C        12.2857169985       -1.9861284353      -18.9300780212
 C        10.9023906999       -1.5044457589      -21.0602896331
 H        13.5072303507       -2.9834211652      -21.2540223648
 H        13.5885547604       -4.7911581806      -21.2602256310
 H        13.9011518835       -4.0727315220      -19.8507143776
 H         8.9714407955       -3.5026839231      -20.7040526757
 H         7.8999405586       -2.5084762447      -19.8151512010
 H         8.7939267812       -4.8386172376      -18.3383090296
 H         8.0281668952       -5.3777357296      -19.5870720479
 H         3.9339356242       -4.3466703241      -15.6539346859
 H         5.0966571160       -3.1852781139      -16.1235676557
 H         5.5558225512       -5.3697728905      -13.8329018778
 H         4.9878984785       -3.8359207120      -13.6125958459
 H         8.8515410837       -0.9452213528      -11.5081890343
 H         7.2999598659       -1.4077301802      -10.9214315952
 H         7.6734997248        1.1960112533      -12.1812507168
 H         7.0022619010        0.8371489132      -10.7757239957
 H         3.3062109306       -1.0538444764      -10.6740427265
 H         2.2919027346       -0.1980248526      -11.7002353315
 H         0.6882680890        0.2588481050       -9.9253946660
 H         1.9380664709        0.6643020922       -8.7608728868
 H        -1.2404172439       -2.2340696404       -6.9216194370
 H        -1.5632177661       -0.9781989860       -8.0819505212
 H        -1.9110122247        0.4938403748       -5.8850888868
 H        -2.1449224458       -1.1211412630       -5.2134744976
 H        -5.8380601216        1.3439030329       -7.4632586858
 H        -7.6307079791        1.3427991101       -6.9851416306
 H        -8.3242805183       -0.3633940624       -8.3328321684
 H        -6.4877021426       -0.9493330949       -8.6278056949
 H        -8.7007241662       -1.2430307389      -13.2361332153
 H        -9.6859256336        0.0865631951      -13.5304978713
 H       -11.4015818967       -1.4670391391      -13.4455711250
 H       -11.3353424758       -0.9643029853      -11.7478613687
 H       -13.5793001837       -4.9366635705       -9.8398261684
 H       -13.4790065789       -3.2116955787       -9.4676838653
 H       -12.1818190486       -5.6979514012       -8.1516664511
 H       -13.3358930822       -4.5420206864       -7.4749806944
 H        -9.7576293831       -5.6850843028       -3.2469812707
 H       -11.1553995441       -6.4087432918       -4.2013814859
 H       -10.9422851517       -3.9721139656       -2.3712141119
 H       -11.9966188045       -5.4267027052       -2.1850512347
 H       -15.2913402758       -1.7086979051       -4.6404414617
 H       -13.6942439672       -2.0134294815       -5.2801168254
 H       -14.3238989499        0.8123881212       -4.2862489809
 H       -14.5715565327        0.2447632182       -5.9275341942
 H       -12.3269905069        2.9235163958       -8.4584496765
 H       -11.3808531688        1.6532410792       -9.4504900804
 H        -9.8112293085        3.4146998883       -9.6534318507
 H        -9.5121005322        3.1456369477       -8.0244739816
 H        -8.2808025185        7.4220399806       -5.8420484688
 H        -9.2483004066        6.8409822990       -4.3811441973
 H        -9.8866998640        7.7238650812       -5.7835942212
 H        -8.8037640850        5.5515516688       -9.7989543509
 H        -8.2391191384        4.6174937045       -8.5287005433
 H        -7.8445958676        6.4240641487       -8.5913646676
 H       -10.7493436713        7.2129312970       -9.3995749798
 H        -9.6405900913        7.9776443578       -8.2195341394
 H       -11.3343014777        7.4497546613       -7.8733422427
 H       -13.2666022020        3.4295092592       -6.8134942232
 H       -13.8882316996        2.6202719326       -5.5424708509
 H       -14.0373604400        1.9817007680       -7.0886391146
 H       -10.6263314097        3.0606319942       -5.4595150223
 H       -10.7856884091        1.6277438791       -4.4216950104
 H       -12.0755611924        2.8649075684       -4.3427207184
 H       -15.4278212821       -3.2714528643       -1.2580820065
 H       -14.9585527480       -4.8688803298       -2.0349771187
 H       -15.6309109512       -3.6621425453       -3.0233806867
 H       -12.8807609928       -3.9967618435       -0.6447364904
 H       -13.6327775477       -2.3792446763       -0.4293261542
 H       -11.9512407779       -2.5702094400       -1.2638400731
 H       -10.1288088792       -6.9295432087       -7.7186254531
 H       -11.4686315531       -6.7878374096       -6.5653726139
 H        -9.7767218787       -7.1055031185       -5.9800718898
 H        -7.9197247178       -5.2179978707       -6.7140045147
 H        -8.7017934867       -3.4602247547       -6.6010432070
 H        -8.6373820220       -4.4820059736       -7.9522024071
 H       -13.2873128992       -2.1101245241      -11.9688253146
 H       -14.0469014108       -3.7185428889      -11.7448350162
 H       -13.4734992437       -3.2142628371      -13.2850711244
 H       -10.9551417999       -5.6513862852      -12.5798760834
 H       -12.0169205735       -4.9848020435      -13.7877734151
 H       -12.5389879944       -5.8823233115      -12.3695940404
 H        -7.2793794617        0.4727971827      -13.1869764172
 H        -6.0858719862        1.5186203721      -12.1145775758
 H        -7.7193294170        2.0000496520      -12.4629209018
 H        -5.7665539643       -0.9695435887      -11.5047694643
 H        -7.2606389204       -1.6909773070      -12.0315708345
 H        -6.8642727580       -1.7600690304      -10.3506517577
 H        -3.9701496127       -1.2820707281       -3.6704192344
 H        -5.2379386497       -2.1728165400       -4.4277420809
 H        -5.5429215457       -0.8603299959       -3.3905511328
 H        -4.3359092469        1.9414829226       -5.6504085155
 H        -3.7880468712        1.2015376114       -4.1896298128
 H        -5.5548362690        1.5887082292       -4.4711334244
 H         1.1219182425       -3.0188428199       -5.8973163760
 H         2.0149291072       -3.5716662776       -7.4004226581
 H         0.2576564284       -3.3072640836       -7.4202781414
 H         2.9105053491        0.1115816544       -6.8228146274
 H         3.5805077737       -1.5296758457       -6.8782855519
 H         2.5939866185       -0.9467221870       -5.5481093129
 H         6.2107471380        2.7560815238      -11.0649300225
 H         4.8405444784        3.6582553202      -11.8842071792
 H         5.9960883064        2.9942398417      -12.7961013235
 H         3.5140895090        0.6359704584      -13.6927176568
 H         3.8394413432        2.3268433241      -13.8813751722
 H         2.5549662670        1.8901762332      -12.8575190703
 H         7.5443601620       -4.1051081808      -10.8616219691
 H         6.6663467537       -4.9759429420      -11.9538331655
 H         6.0807850648       -3.3201810035      -11.3058302537
 H         9.2459190327       -4.7392068770      -12.4811956896
 H         9.5240437417       -3.1703967694      -11.6920536867
 H         9.8540905443       -3.2876212844      -13.3686506989
 H         4.2896899450       -4.1342360907      -19.5451008888
 H         4.1590931982       -3.4342968228      -18.0355758780
 H         3.3922390297       -4.9659667593      -18.2049658295
 H         6.3115617219       -7.1401661282      -18.2157909093
 H         6.3443725203       -6.2861975716      -19.7719545331
 H         4.8484367803       -6.7652442641      -19.3215974040
 H        13.3077037923       -1.8448059136      -19.3465015588
 H        12.3507811052       -2.7426831930      -18.1715393115
 H        12.0865907250       -0.9826112941      -18.5634427390
 H        11.8526843138       -1.3117562028      -21.5628126648
 H        10.5253761953       -0.6589403293      -20.6209382329
 H        10.2343571149       -1.9678120911      -21.7971059198
 Na       -9.7348954142       -1.4319238018       -6.0908483908
 Na        8.3244060925       -2.4453337613      -16.0792727519
