232

 C        13.0000248314       -3.5257040357      -21.3834943860
 C        11.6426506823       -3.6003406922      -20.7951710262
 O        11.0131608132       -4.6047532394      -20.8811386340
 C        11.1444711624       -2.2221792207      -20.1012946985
 C         9.8444684553       -2.5683993935      -19.1939454523
 O         9.8807537635       -2.3495320418      -18.0135941400
 C         8.6273570775       -3.0808483743      -19.9341887617
 C         8.0443484884       -4.4751294307      -19.5512038572
 C         6.9084964185       -4.2705305807      -18.4440714323
 O         6.8188912007       -3.1995475037      -17.9313321453
 C         5.7410643055       -5.3517778875      -18.1869533105
 C         5.4806180117       -5.5775641129      -16.5476522271
 O         5.9264836295       -6.6194621950      -16.1041113326
 C         4.7684980830       -4.5001797151      -15.5729165871
 C         5.4319296936       -4.4660855069      -14.1602090042
 C         6.8879656458       -4.0712058230      -14.1371149007
 O         7.5015579648       -3.9271169492      -15.1592839413
 C         7.5743062214       -3.4460480363      -12.8010535921
 C         7.5621281101       -1.8089618460      -13.0605010148
 O         7.7005260004       -1.2756121212      -14.1441426121
 C         7.5135202624       -1.0078784228      -11.8013533888
 C         7.0187983539        0.5404310649      -11.9670539970
 C         5.5203453615        0.3447751283      -12.1067921973
 O         5.0442528937       -0.7130911314      -12.4078607867
 C         4.5323527666        1.5648691542      -11.7256111923
 C         3.6927169854        1.1291657963      -10.5372685741
 O         3.8757055218        1.7064850665       -9.4611472689
 C         2.6704973080        0.0172640768      -10.6107789122
 C         1.6496653394        0.0728386104       -9.4035679457
 C         1.3436707487       -1.2828558760       -8.7439560453
 O         1.1273827159       -2.2595659642       -9.4143228185
 C         1.3631678547       -1.4378763441       -7.1079917724
 C         0.0114668222       -0.6431108134       -6.7864927506
 O         0.0353615046        0.5040810479       -6.3929600635
 C        -1.3983368588       -1.4627665873       -7.0660736692
 C        -2.4130973307       -0.5550281688       -6.3704002982
 C        -3.8910393891       -0.8306351539       -6.5971087606
 O        -4.2059165538       -1.5663951024       -7.5035600275
 C        -4.9701513381       -0.2033159196       -5.4272903473
 C        -6.4151658468       -0.3327188122       -6.0228173586
 O        -7.0986589174       -1.1929840063       -5.5194692876
 C        -6.8313326016        0.5705880791       -7.1989813592
 C        -6.8162409330       -0.2355942644       -8.5557325291
 C        -7.3288581138        0.6845317080       -9.5737587051
 O        -7.7743633286        1.7504365576       -9.2128508371
 C        -7.3878465942        0.2863409674      -11.1138171160
 C        -8.9028920799        0.0753630167      -11.5146568193
 O        -9.8142625120        0.4646172823      -10.7511783367
 C        -9.2766519975       -0.7421803967      -12.7869583324
 C       -10.5674859845       -1.4897263736      -12.4478195279
 C       -10.4463585144       -3.0040162351      -12.2715754619
 O        -9.5174622347       -3.6206464266      -12.6713003059
 C       -11.7193438329       -3.7577112556      -11.6848504222
 C       -11.6926079038       -4.0442704226      -10.1201268500
 O       -10.6749819382       -4.5024864172       -9.6018041403
 C       -12.8868383273       -3.8536232269       -9.2137331647
 C       -12.6925785314       -4.1828503072       -7.7777443420
 C       -11.2486306866       -3.8362986618       -7.2750441383
 O       -10.8601355109       -2.6866199924       -7.3971706214
 C       -10.2033823735       -4.8555449883       -6.6810572472
 C       -10.1670176994       -4.4856403107       -5.1652664111
 O        -9.7702706962       -3.4012645423       -4.8209784124
 C       -10.6301620569       -5.5123333629       -4.0603919105
 C       -11.3426490693       -4.7820661427       -2.8929338583
 C       -12.6301148136       -4.0018341549       -3.3583861089
 O       -13.0546289688       -4.1128727838       -4.4773796794
 C       -13.4036688058       -3.0194008963       -2.3867857154
 C       -13.6647560074       -1.5832025927       -3.1020852253
 O       -13.3207557548       -0.5897712061       -2.4960602533
 C       -14.2786274187       -1.5749147785       -4.4676357411
 C       -14.0657091195       -0.2143830706       -5.2874048995
 C       -12.5642642825       -0.0387933816       -5.5346198424
 O       -11.8645947691       -1.0527298303       -5.5083620362
 C       -12.0297551449        1.4600484605       -5.7922830413
 C       -10.9899574608        1.5011775407       -6.9042840798
 O        -9.9407907185        0.8585201808       -6.8192141999
 C       -11.1486066118        2.1769380289       -8.2796888642
 C       -10.1520050612        3.2317010403       -8.6410653827
 C       -10.7506993206        4.5724668182       -8.2750742169
 O       -11.8912500725        4.6657067277       -7.8631236564
 C        -9.7763646980        5.8636827616       -8.2411649223
 C        -9.3052006085        5.9823803244       -6.7000373626
 O        -8.8688192293        4.9680658377       -6.2379384025
 C        -9.3410656653        7.2769903589       -6.0645542012
 C        -8.5062168656        5.6546933677       -9.1977820260
 C       -10.5163757711        7.1182542056       -8.7928923459
 C       -13.2209389904        2.3428417046       -6.1899768340
 C       -11.4873000723        2.0046665675       -4.4407276555
 C       -14.8343511424       -3.8064234687       -2.2045333215
 C       -12.9067102056       -2.7940419263       -0.9695451323
 C       -10.3815047159       -6.3960013048       -6.8686310639
 C        -8.8124475270       -4.4993630786       -7.2710151325
 C       -13.1168077906       -3.1076555902      -12.0508823440
 C       -11.5811951320       -5.1879950850      -12.2639364930
 C        -6.8360322247        1.4932173845      -11.7608302482
 C        -6.6046144820       -0.9925192536      -11.5768196795
 C        -4.7927901158       -1.2473446293       -4.3311122481
 C        -4.6337576809        1.2153163232       -5.0278518791
 C         1.2838222371       -2.9412768348       -6.7482769635
 C         2.4835598331       -0.6918058080       -6.3532080895
 C         5.4054692277        2.8226135868      -11.4000189345
 C         3.6191847740        1.7852611674      -12.9874366407
 C         6.8110851946       -3.9044244022      -11.5885802535
 C         9.0332652794       -3.9434550506      -12.6476524632
 C         4.4789334144       -4.5993193632      -18.6423367984
 C         5.9867152516       -6.7285259536      -18.8697320155
 C        12.1354771717       -1.7316913543      -19.0250532699
 C        10.8545434796       -1.1728334901      -21.1611301826
 H        13.3407054324       -2.4735340613      -21.2021458159
 H        13.0334144639       -3.9915658275      -22.3544980921
 H        13.8003441843       -4.1736636180      -20.8546807744
 H         8.9081489137       -3.2904474559      -20.9575664626
 H         7.8378491986       -2.3161299674      -19.9245337999
 H         8.7395443364       -5.1868254299      -19.1130454887
 H         7.8146373784       -5.0112032734      -20.4352984706
 H         3.7376539365       -4.8259141262      -15.6525096330
 H         4.7629918115       -3.6161612109      -16.1477412431
 H         5.0769413769       -5.3533444600      -13.5767493884
 H         5.0137145974       -3.6852724221      -13.7038592071
 H         8.4434002323       -0.9016088457      -11.2506734933
 H         6.8306764645       -1.4330312312      -11.0546303571
 H         7.4898975291        1.0650925386      -12.8095232818
 H         7.3576513529        1.2220251982      -11.1502668874
 H         3.1256767141       -1.0054327755      -10.6026148398
 H         2.0747471013        0.0637550765      -11.5840783510
 H         0.6356316113        0.3438204956       -9.7246197674
 H         2.0538833558        0.7987444844       -8.6719634235
 H        -1.3696325772       -2.4831321506       -6.6329068001
 H        -1.6610506390       -1.4983599187       -8.0760155982
 H        -2.0413506303        0.4584956533       -6.5918161473
 H        -2.2253966326       -0.6722504665       -5.3142791833
 H        -6.1107446447        1.3456689488       -7.1980351667
 H        -7.8344212286        0.9401846619       -7.0747876385
 H        -7.3396120491       -1.1929198638       -8.6427313170
 H        -5.7388778848       -0.4032595897       -8.8035186783
 H        -8.3926174035       -1.3128011091      -13.1588323860
 H        -9.3742293138        0.0003424728      -13.5752253133
 H       -11.3244647374       -1.2238777195      -13.1929303295
 H       -10.9097762662       -1.2238389807      -11.4606730516
 H       -13.7808218766       -4.3313658059       -9.5339905041
 H       -13.1577489136       -2.7893299968       -9.3543663852
 H       -12.9417599085       -5.2118934056       -7.4563200951
 H       -13.3515695257       -3.4734208864       -7.2838245409
 H        -9.6524643324       -5.9092652218       -3.7751606414
 H       -11.1716651112       -6.3167192205       -4.5591203610
 H       -10.7146450618       -4.0252650665       -2.5141016651
 H       -11.5485373007       -5.5649877487       -2.1717805821
 H       -15.4371743380       -1.6501544628       -4.4355758909
 H       -13.9529092887       -2.4469640651       -5.0818181125
 H       -14.5821387291        0.5931929176       -4.7622143355
 H       -14.5646878822       -0.2884914679       -6.2518572403
 H       -12.1059639419        2.7168997253       -8.5459319991
 H       -11.0925754521        1.3387494470       -9.0061401199
 H       -10.0109659331        3.0834515802       -9.6669136956
 H        -9.2657361514        3.0568995607       -8.0812350080
 H        -8.4950999000        7.8630821417       -6.5258199946
 H        -9.1296843496        7.1477978247       -5.0410323827
 H       -10.2858035832        7.8197333110       -6.1914530917
 H        -8.8872811799        5.6123456421      -10.3040503290
 H        -7.9594274744        4.7579475271       -8.9391161191
 H        -7.8021412426        6.4643642849       -9.0511025150
 H       -10.4885047655        7.2022714463       -9.8390781838
 H        -9.7787035840        7.8870668066       -8.5595545577
 H       -11.5134476084        7.2664254772       -8.3141082469
 H       -13.0177547758        3.3860206779       -6.5666146037
 H       -13.8860550663        2.6030061892       -5.3315247714
 H       -13.9398508022        1.8919219374       -6.8414228222
 H       -11.5686815425        3.0892244373       -4.3871288476
 H       -10.4912818239        1.6633535711       -4.2825982629
 H       -12.1075199190        1.5992309703       -3.6619807625
 H       -15.5706479660       -3.0728716512       -1.9599111584
 H       -14.8356373894       -4.4670979729       -1.3158943667
 H       -15.2227506685       -4.2779509705       -3.1135430543
 H       -13.0841120282       -3.7209435394       -0.3979987703
 H       -13.7020155560       -2.1638232472       -0.6311860570
 H       -11.9007020347       -2.3269087665       -0.9074305479
 H       -10.2150386081       -6.8668356195       -7.8353474843
 H       -11.3130066083       -6.5880087197       -6.5164445299
 H        -9.6459575385       -6.7521640307       -6.1125006588
 H        -7.9798857838       -4.8024431619       -6.5714731563
 H        -8.6914834552       -3.4366590643       -7.2873969980
 H        -8.5471665280       -4.9372445908       -8.1739231075
 H       -13.2532985961       -2.2239865717      -11.4725107129
 H       -13.8914594797       -3.7755675734      -11.7104317145
 H       -13.1731158020       -2.8466684811      -13.0747404740
 H       -10.6116211263       -5.5293381834      -11.9797018178
 H       -11.5819813367       -5.1728075591      -13.3752284188
 H       -12.1378646729       -5.9999195538      -11.7999127457
 H        -6.9216947917        1.5087131614      -12.8510599557
 H        -5.7037217051        1.5248706634      -11.6442695382
 H        -7.1978863188        2.3511576632      -11.2446078069
 H        -5.6841798026       -1.0036812802      -11.0996135566
 H        -6.4120744161       -0.8418864784      -12.6388145268
 H        -7.1829470347       -1.9506801804      -11.4376865073
 H        -3.8961130647       -1.1709760994       -3.6787744970
 H        -4.7798408664       -2.2331440934       -4.7892641444
 H        -5.5768009063       -1.2301011183       -3.5534298742
 H        -3.5910149806        1.5181813194       -5.3027531401
 H        -4.7322148958        1.3866142636       -3.9100225236
 H        -5.3792461711        1.8145897804       -5.5024316803
 H         0.8861997090       -3.0549514847       -5.6928411661
 H         2.3567664687       -3.2879359644       -6.6774860172
 H         0.7302401674       -3.4164376985       -7.5738871639
 H         3.2133983841       -0.2140214153       -6.9297175712
 H         2.9153582566       -1.2533177028       -5.6135763709
 H         2.0588606362        0.2316972884       -6.0260284910
 H         6.0970404972        2.7113477653      -10.6067073414
 H         4.7501284239        3.6767661907      -11.3004455417
 H         5.9320220696        3.1073031354      -12.3558918431
 H         2.9450231324        0.9662526177      -13.1771722860
 H         4.2877275761        1.8638151826      -13.8441166067
 H         3.0543843453        2.6909047312      -13.0425561181
 H         7.1528839158       -3.5989566661      -10.6516472494
 H         6.9108734643       -4.9680894430      -11.5162512883
 H         5.7384614326       -3.5063448140      -11.7919031361
 H         9.0888380513       -4.9964779919      -12.7766737199
 H         9.2579592161       -3.6629633409      -11.5931850355
 H         9.7583693659       -3.3933373590      -13.2442202557
 H         4.5057105398       -4.1970806881      -19.6142202951
 H         4.3607097119       -3.7340177064      -17.9782369822
 H         3.5694620968       -5.1520445202      -18.5485416520
 H         7.0649529210       -7.0445451188      -18.7983627610
 H         5.6941056688       -6.6709829263      -19.8717478109
 H         5.2904085782       -7.5198101279      -18.3820165295
 H        13.0287612755       -1.3361134079      -19.4351021761
 H        12.4462917271       -2.5730276613      -18.4413338450
 H        11.6978278582       -0.9418021930      -18.4737417642
 H        11.7525073552       -1.0418754920      -21.7291333018
 H        10.6507866148       -0.3119596152      -20.6235906199
 H        10.1482128536       -1.5070408168      -21.9375266518
 Na       -9.4237097466       -1.3120485181       -6.1830056897
 Na        8.3825447174       -2.2040595369      -16.3405633895
