232

 C        12.4238232758       -2.9334005986      -22.0760753810
 C        11.3859058957       -3.3231610624      -20.9956225172
 O        10.8061466119       -4.3729636023      -20.8236519367
 C        10.9530649967       -2.0767161052      -20.0552936829
 C         9.7718158158       -2.4285571701      -19.2633770863
 O         9.7549434000       -2.2251801966      -17.9869540305
 C         8.4497404848       -2.8503359276      -19.8907202531
 C         7.8900255462       -4.1849525476      -19.4093601134
 C         6.6500391829       -4.0044028378      -18.5507601407
 O         6.3781537384       -2.9063725032      -18.0515311339
 C         5.7736678012       -5.3516810450      -18.1807722775
 C         5.4841014340       -5.7347140151      -16.6608326558
 O         5.9935715745       -6.7584575259      -16.3152785492
 C         4.6849525420       -4.7623539803      -15.6790340796
 C         5.4298622339       -4.5117425210      -14.2975467918
 C         6.8153375280       -4.0251957168      -14.4265778650
 O         7.5430543894       -4.0592204315      -15.4425275241
 C         7.3223480896       -3.4302345296      -13.0375729816
 C         7.6299900599       -1.8751055156      -13.1534318911
 O         7.9227406503       -1.5075726782      -14.2855679951
 C         7.5240119166       -0.9585132590      -11.9252463248
 C         6.7694643152        0.3479449780      -12.0745178706
 C         5.2849484251        0.2627645967      -11.8316831643
 O         4.6531698701       -0.7806490625      -12.0141105442
 C         4.4049651545        1.5070197236      -11.5390672424
 C         3.4196027565        1.3111367110      -10.2382509201
 O         3.5358147759        2.0411153875       -9.3223865381
 C         2.2312531354        0.3845804299      -10.4517730787
 C         1.4459419433        0.2458115005       -9.0591575221
 C         1.3718578152       -1.2285103517       -8.5782649288
 O         1.3033989771       -2.0991403347       -9.4327828701
 C         1.2715968406       -1.4195855573       -7.0777438558
 C         0.0070169119       -0.5538814021       -6.5082099750
 O         0.0564560389        0.4800833616       -5.8689098003
 C        -1.3545159772       -1.2284428440       -6.7510361206
 C        -2.5218827926       -0.2700357883       -6.5017965785
 C        -3.8621056231       -1.0663003956       -6.3089938370
 O        -4.1179021280       -2.0219077328       -7.0031816142
 C        -4.9996236158       -0.6535329874       -5.2924794445
 C        -6.4539471038       -0.6487738656       -6.0444755117
 O        -7.1749945534       -1.5786725098       -5.7439288775
 C        -6.7524360761        0.3428837213       -7.2145780022
 C        -7.0665346970       -0.3035375653       -8.6836347625
 C        -7.0274640797        0.7983544239       -9.7332568758
 O        -7.0979935711        1.9697978197       -9.3660985732
 C        -7.2638144679        0.2542438509      -11.1766383091
 C        -8.8550186270       -0.1003094789      -11.4866915864
 O        -9.7348155130        0.4671572540      -10.9901947441
 C        -9.1537526015       -1.2312414019      -12.5046013223
 C       -10.6042280383       -1.6871186430      -12.4652285986
 C       -10.5449946323       -3.1839473493      -12.3735942920
 O        -9.4865821658       -3.7862569573      -12.3592892551
 C       -11.8201933332       -3.9866643277      -11.7794150581
 C       -11.4823587698       -3.9362076212      -10.2580484791
 O       -10.4133209062       -4.2708183332       -9.7920670367
 C       -12.5405602163       -3.2607513000       -9.2628889263
 C       -12.2862692619       -3.6749202032       -7.7935373065
 C       -10.7036784818       -3.5173109137       -7.4427244758
 O       -10.1425355430       -2.4823957860       -7.6618685205
 C        -9.8137151075       -4.7662717145       -6.6279583402
 C        -9.8219856923       -4.2535340474       -5.0825727702
 O        -9.2019180002       -3.2286835983       -4.7446583082
 C       -10.3989225476       -5.2559200069       -3.9640716818
 C       -11.2138942003       -4.4263747909       -2.9493182794
 C       -12.6212689394       -4.0076605569       -3.4452250047
 O       -13.1593727621       -4.4459231389       -4.4672997718
 C       -13.4159645012       -3.0824887098       -2.5350497874
 C       -13.4893849088       -1.7177088640       -3.2029205992
 O       -12.7918252528       -0.7295236083       -2.9859088683
 C       -14.6111323122       -1.5571305671       -4.3479627850
 C       -14.1511283370       -0.2681880882       -5.1503947736
 C       -12.6442329687       -0.1362577713       -5.2711642383
 O       -11.9439475680       -1.0905237194       -5.4942285925
 C       -11.9603411179        1.3498669411       -5.3310113196
 C       -10.8404602732        1.3285682644       -6.4102934979
 O        -9.7149037511        0.8237404830       -6.3176236101
 C       -11.1270061033        1.9341722493       -7.7856287408
 C       -10.1194854711        3.1098464897       -8.2204734374
 C       -10.7603969363        4.5459235249       -8.2835314176
 O       -11.9269592514        4.6514333836       -7.9040701029
 C        -9.8695259132        5.7899984428       -8.5651435082
 C        -9.0675834588        6.2755416076       -7.2621825483
 O        -8.2498398835        5.4668048135       -6.8195375997
 C        -9.4076365260        7.6050493510       -6.4110955518
 C        -8.8222163607        5.3491267705       -9.6424408512
 C       -10.7052611067        6.9267723677       -9.2480751622
 C       -13.0537657338        2.3714608594       -5.6197707487
 C       -11.3517210741        1.6500416073       -3.9320200449
 C       -14.7429090639       -3.7317862967       -2.2841013792
 C       -12.7305155896       -2.7688176308       -1.0900875223
 C       -10.3926047347       -6.1905143990       -6.8078593285
 C        -8.3652027852       -4.6666000050       -7.2724433510
 C       -13.2107918188       -3.3689343065      -12.2249229367
 C       -11.5710933990       -5.4243930912      -12.2482515338
 C        -6.9897699209        1.4824307379      -12.0770447587
 C        -6.3588281038       -0.9218200512      -11.5047381341
 C        -5.0781281540       -1.6497430903       -4.1107013830
 C        -4.9733667176        0.8488103394       -4.7473051107
 C         1.0825716951       -2.9567262112       -6.7752392984
 C         2.6538035454       -0.9264203782       -6.4606056080
 C         5.3098579532        2.7526198055      -11.2855581355
 C         3.4758858765        1.8462171434      -12.7816674737
 C         6.3984575128       -3.7231909013      -11.8179263570
 C         8.7360657919       -4.1737574144      -12.7279690462
 C         4.4500282085       -5.3102350446      -18.9605749018
 C         6.5701413063       -6.6190470266      -18.8953951544
 C        12.2093888145       -1.4948966277      -19.3309340519
 C        10.3766519088       -1.0025118280      -21.1140638411
 H        11.8950963127       -2.1956272230      -22.7949240720
 H        12.7822856964       -3.8421694449      -22.7187090356
 H        13.2677953643       -2.3165202845      -21.7351183820
 H         8.5000555821       -2.8674109664      -20.9899086315
 H         7.7525075664       -2.1201065972      -19.5049320432
 H         8.7145149874       -4.6578753404      -18.8218600851
 H         7.5827428436       -4.8171175954      -20.2098915870
 H         3.6578047536       -5.1564464545      -15.4805594628
 H         4.5374778495       -3.9045713765      -16.3099375410
 H         5.4715607337       -5.3502525272      -13.6949723557
 H         4.6676779351       -3.8222334514      -13.7750201707
 H         8.6109603475       -0.7841909072      -11.7454341730
 H         7.0895854758       -1.4601203350      -11.0493189896
 H         7.0584981024        0.8102243145      -13.0275988124
 H         7.0560894220        1.0242289480      -11.2493562913
 H         2.8253984958       -0.6039197252      -10.6818608643
 H         1.6029514392        0.7351797006      -11.2623858880
 H         0.4086524496        0.5799709360       -9.2275517356
 H         2.0054338702        0.8273862915       -8.3516224116
 H        -1.5643333798       -2.0326582901       -6.1351105222
 H        -1.2947571167       -1.5577628086       -7.8262166011
 H        -2.5585436483        0.6016480930       -7.1883112181
 H        -2.3365356212        0.2092626140       -5.5919276397
 H        -5.8339461304        0.9892281753       -7.2095080114
 H        -7.4654649796        1.0153048564       -6.8589849773
 H        -8.0664944734       -0.7939417558       -8.6614970862
 H        -6.3925442006       -1.1292893140       -8.9365681457
 H        -8.4337997172       -2.0060029105      -12.3278185003
 H        -8.9301242808       -0.7472753763      -13.4984928275
 H       -11.0743841089       -1.3342718989      -13.4199237944
 H       -11.0490099543       -1.2986421556      -11.5944099949
 H       -13.5795024169       -3.3163980172       -9.6328135110
 H       -12.3671116585       -2.2016727916       -9.3107199612
 H       -12.5169586781       -4.6622801372       -7.5611933640
 H       -12.8161135655       -3.1368977910       -6.9974237519
 H        -9.4990312637       -5.6798233028       -3.4947147455
 H       -10.8534113299       -6.1326112845       -4.3924559201
 H       -10.6468072570       -3.5623056594       -2.5413908608
 H       -11.2925940152       -5.1169351438       -2.2080097551
 H       -15.5814274358       -1.4557955191       -3.8209182383
 H       -14.7032874889       -2.3468735186       -5.2140898852
 H       -14.6247665741        0.6090711461       -4.7989880021
 H       -14.5230295245       -0.3300927506       -6.1733652149
 H       -12.0967151402        2.4610195165       -7.8557866186
 H       -11.1669085665        1.1566002682       -8.6256216331
 H        -9.7735321065        2.7870252747       -9.1681248579
 H        -9.3265048803        3.0812744436       -7.5025799401
 H       -10.0092802586        8.4300115963       -6.6669248747
 H        -8.3819644073        8.0808272994       -6.3795928878
 H        -9.6235146265        7.1808709350       -5.4326324586
 H        -9.3223691022        5.1612727501      -10.5295771521
 H        -8.1802657126        4.5083047027       -9.2496764668
 H        -8.0773871307        6.1752317678       -9.9068113825
 H       -10.7275262906        6.6317639172      -10.3162050702
 H       -10.1536711584        7.8608039053       -9.0867351841
 H       -11.6212943137        6.9679909323       -8.6910919139
 H       -12.6383183802        3.3319518546       -5.9492008598
 H       -13.6752865131        2.5355454643       -4.7122895913
 H       -13.7453302226        2.1303891953       -6.4914770605
 H       -10.9746033837        2.6435101884       -3.9533339840
 H       -10.5579393692        0.9433928252       -3.6922808618
 H       -12.1100918884        1.6600047897       -3.2021342897
 H       -15.4313456325       -3.0289793311       -1.8200947628
 H       -14.5323639201       -4.5453720010       -1.6672767653
 H       -15.2346766787       -4.0639721298       -3.1836168322
 H       -12.7865468305       -3.6796274028       -0.4772264936
 H       -13.2715071508       -1.9105045123       -0.7079064006
 H       -11.7299479763       -2.4101417434       -1.2513115395
 H       -10.0975991764       -6.6802071736       -7.6976774678
 H       -11.5062184102       -6.1380159150       -6.5844631892
 H        -9.9715700169       -6.6881478264       -6.0221872095
 H        -7.7416032560       -5.3053764739       -6.7788649334
 H        -7.8114005567       -3.7593366317       -7.1408281578
 H        -8.4919814232       -4.7772727145       -8.3401236024
 H       -13.4968960435       -2.3388988646      -11.9678403223
 H       -13.9564756706       -4.0432815255      -11.8543964952
 H       -13.3079842278       -3.5157877787      -13.3210528723
 H       -10.5156295645       -5.7970686284      -12.1317726106
 H       -11.7599592778       -5.5181974296      -13.3140898072
 H       -12.3216681512       -6.1518529078      -11.8770363085
 H        -7.2670903740        1.3068416953      -13.1536274550
 H        -5.9672190441        1.7506098649      -12.0648893053
 H        -7.6821056853        2.2529426087      -11.6595509440
 H        -5.3045162045       -0.9118808139      -11.0220370106
 H        -6.2295787116       -0.9982856151      -12.5646099204
 H        -6.8562378394       -1.7363547801      -11.1108616428
 H        -4.0696763718       -1.7412654879       -3.6467552293
 H        -5.3020647718       -2.7024382030       -4.3458327392
 H        -5.8530406915       -1.4339183260       -3.3450362570
 H        -4.5642629349        0.8806034131       -3.7533965780
 H        -5.9570309855        1.2128082447       -4.9111888739
 H        -4.2672449925        1.4386981605       -5.3787957729
 H         1.3397010965       -3.1310320031       -5.6872563626
 H         1.7629964170       -3.5205250247       -7.4170938036
 H         0.0041856563       -3.3516795194       -6.9578527603
 H         2.5449146347       -0.8211365695       -5.4312666806
 H         3.0751587112       -0.0107669917       -6.7559542087
 H         3.4375671020       -1.5731709494       -6.6158233656
 H         5.9867438983        2.6292387568      -10.4027329931
 H         4.7103566495        3.5782732389      -10.9357590725
 H         5.8718907664        2.9069107472      -12.1394066513
 H         2.8438719524        1.0051876742      -13.0467341639
 H         4.0919941638        1.9982915160      -13.6351857416
 H         2.7453359789        2.6015659754      -12.5920838782
 H         6.9711425927       -3.4312907847      -10.8736172174
 H         5.9745549127       -4.7102918384      -11.8967495782
 H         5.5823486524       -3.1101634357      -11.8768226029
 H         8.6104326756       -5.2785415947      -12.4828858829
 H         9.1620355046       -3.7492419336      -11.8561687180
 H         9.3067823345       -4.0811229065      -13.6269171481
 H         4.6011181998       -5.2344159239      -20.0425039293
 H         3.8788151632       -4.4841801464      -18.6982729797
 H         3.9050480710       -6.2071376911      -18.7873920577
 H         7.6462092038       -6.5823231368      -18.7779471663
 H         6.3683543353       -6.6132387165      -20.0442985601
 H         6.2860420992       -7.4894151791      -18.3730150742
 H        12.8704937959       -1.1302762841      -20.0535980393
 H        12.6913434172       -2.1715768501      -18.6886372605
 H        11.8889970192       -0.7769115200      -18.6450820203
 H        11.1301745342       -0.3874260409      -21.5579607582
 H         9.6298172090       -0.2966194896      -20.6397304052
 H         9.8033107861       -1.5520014240      -21.7923723337
 Na       -9.7374692567       -1.2951303029       -5.7111678197
 Na        8.2082668560       -2.1907254793      -16.4702004558
