232

 C        12.1573603467       -2.9530937995      -22.1342356876
 C        11.2381112858       -3.1993613624      -20.9769447806
 O        10.7312169156       -4.2444875742      -20.7951341898
 C        10.8394870867       -1.9207936354      -20.1146768701
 C         9.7187662934       -2.3006569337      -19.1388198413
 O         9.8728810884       -2.1706998541      -17.9460184651
 C         8.3723649329       -2.7366000717      -19.8533984143
 C         7.9552462029       -4.1368949634      -19.3337660567
 C         6.6469660179       -4.0845994201      -18.5615567085
 O         6.3480895971       -2.9519221187      -18.1495491898
 C         5.8175624221       -5.3608809422      -18.2812380180
 C         5.7277572996       -5.6772220343      -16.7716459360
 O         6.0617103483       -6.7244563451      -16.2035758920
 C         4.7451146535       -4.7893438214      -15.9109616541
 C         5.3617272381       -4.5554750986      -14.5237195659
 C         6.7377031079       -3.9889075009      -14.4058108505
 O         7.4794480600       -4.0486331758      -15.3640328863
 C         7.2101583343       -3.4685851687      -13.0191055665
 C         7.5414540061       -1.9030487980      -13.2024800334
 O         7.8668482341       -1.3996581436      -14.2297023580
 C         7.6103268218       -0.9833142735      -11.9429814984
 C         6.7956522842        0.3015255902      -12.1274740587
 C         5.2156807254        0.2281629934      -11.7837442021
 O         4.6752751700       -0.8645804006      -11.8570394717
 C         4.3896248988        1.5436693563      -11.5649272006
 C         3.4530803744        1.3500819125      -10.3095900029
 O         3.5844506945        2.0583676013       -9.3484728371
 C         2.1555662082        0.4252137786      -10.4118009456
 C         1.3116544888        0.3311537443       -9.0569896336
 C         1.2829357092       -1.1489717994       -8.5827300992
 O         1.3613463602       -2.0503898046       -9.3349451380
 C         1.2680495772       -1.4696920087       -6.9397036298
 C         0.0993673388       -0.6908166748       -6.4179495660
 O         0.2881831145        0.4340128271       -5.9419347901
 C        -1.3790616701       -1.1692754207       -6.7493767354
 C        -2.5071435301       -0.3091360765       -6.3346242127
 C        -3.8726429530       -1.0350124383       -6.2658600136
 O        -3.9179689642       -2.1009523177       -6.8173406673
 C        -5.1236647776       -0.5803594856       -5.3439915186
 C        -6.4631733915       -0.7809193126       -6.1647441141
 O        -7.4331118198       -1.4614929745       -5.8550181641
 C        -6.7903232346        0.3104547596       -7.2683893805
 C        -7.1409781190       -0.3218615596       -8.6123875529
 C        -7.2321983646        0.8373190036       -9.6677283508
 O        -6.7695419093        1.9560735406       -9.4655935327
 C        -7.3870367551        0.3378545121      -11.1315625435
 C        -8.7965308674       -0.1581090816      -11.4745412873
 O        -9.7646354658        0.4106009358      -10.9092317352
 C        -9.0913152318       -1.1912745083      -12.5976447024
 C       -10.5092389452       -1.6988174599      -12.5457447106
 C       -10.5486574962       -3.2401629620      -12.2892564775
 O        -9.5305137679       -3.8675901255      -12.4756071995
 C       -11.7787928223       -4.0639410017      -11.7460779911
 C       -11.5158950799       -3.8782089330      -10.1619385350
 O       -10.5370814026       -4.4031750794       -9.7316906768
 C       -12.3947567890       -3.1001750992       -9.2057684213
 C       -12.0139758496       -3.6468236744       -7.8276718943
 C       -10.5827967877       -3.6283529721       -7.4160302264
 O        -9.9637791382       -2.5822955610       -7.5963854518
 C        -9.7907151915       -4.7212125196       -6.5969250780
 C        -9.7156409832       -4.2568981498       -5.1039922616
 O        -9.2974508712       -3.1927957801       -4.6434971354
 C       -10.3592682623       -5.1927171475       -3.9772833337
 C       -11.1828700999       -4.4544065408       -2.9001532500
 C       -12.5832024162       -4.0783537178       -3.3402897376
 O       -13.0651464233       -4.4281192033       -4.4106110280
 C       -13.4871288234       -3.1302014043       -2.4769716951
 C       -13.5638673905       -1.7982925403       -3.2527886836
 O       -12.8069019209       -0.9159707225       -2.9225230680
 C       -14.5828127313       -1.4146912158       -4.3215673376
 C       -14.1116569231       -0.1844026038       -5.1576516236
 C       -12.5716421141       -0.1127819654       -5.3298914612
 O       -11.9959633212       -1.1310013149       -5.5645985218
 C       -11.9766584815        1.3627220897       -5.2984412883
 C       -10.8258690613        1.4246807662       -6.4245465441
 O        -9.7723074454        0.9464736011       -6.0727092646
 C       -11.0791029140        2.0355285973       -7.7871881004
 C       -10.0626354163        3.1405450032       -8.1669148348
 C       -10.6971196461        4.5040890031       -8.1921324681
 O       -11.8483535689        4.6995735078       -7.8891153590
 C        -9.8646237737        5.7204201743       -8.6645846979
 C        -9.1195912348        6.2338773160       -7.3278829722
 O        -8.1688923831        5.5630382423       -6.9957860291
 C        -9.4187664464        7.4782910225       -6.6260404609
 C        -8.7252185689        5.3697100387       -9.7734848981
 C       -10.8796885913        6.8591871475       -9.2296169717
 C       -13.0502343821        2.4909119757       -5.4569482029
 C       -11.2187306911        1.5184901297       -3.9456281172
 C       -14.8564587986       -3.7721168281       -2.2512571804
 C       -12.6631752503       -2.7821736709       -1.0943451626
 C       -10.3267723162       -6.0859751212       -6.9627077711
 C        -8.4072376585       -4.6186507086       -7.2731526072
 C       -13.0574160980       -3.4805211031      -12.3301763676
 C       -11.7301408328       -5.5238636782      -12.2615901658
 C        -6.9475767341        1.5377105487      -12.0862328586
 C        -6.3561771132       -0.8664871439      -11.4132990958
 C        -5.1381772758       -1.6873769529       -4.3063447498
 C        -4.8911026813        0.8351124118       -4.6105911501
 C         1.1448249331       -3.0000052773       -6.7895082659
 C         2.5660729144       -1.0155061462       -6.3633156653
 C         5.1655765369        2.9553785193      -11.2987535436
 C         3.5276406360        1.8346894934      -12.7240671949
 C         6.2617989539       -3.8941742868      -11.8682224432
 C         8.6939511562       -4.0710995927      -12.8598049358
 C         4.4101757472       -5.3137963744      -18.9737975605
 C         6.5616369548       -6.6248782707      -18.8361868735
 C        12.1679978159       -1.4917854784      -19.3918913320
 C        10.2792838166       -0.8851121124      -21.0869026923
 H        11.6027695122       -2.6137919894      -23.0575167367
 H        12.6458544761       -3.8361966649      -22.3734026399
 H        12.8551930255       -2.1083153121      -21.9380650654
 H         8.5866215957       -2.8321214013      -20.9172769944
 H         7.5002715196       -2.1069038584      -19.6428251203
 H         8.7923333174       -4.4861942611      -18.7691260203
 H         7.5982910696       -4.8298606670      -20.2167397441
 H         3.8256358917       -5.2891341057      -15.7406347928
 H         4.5043207399       -3.8133076594      -16.4739420539
 H         5.3368138096       -5.3967649677      -13.8770151960
 H         4.4746092096       -3.9321914183      -14.1778325395
 H         8.6900420681       -0.7119489005      -12.0242879082
 H         7.3899047023       -1.4452204340      -10.9702992102
 H         6.9149198914        0.4965003929      -13.2042231966
 H         7.2157461742        1.0890009692      -11.5398195850
 H         2.3798366480       -0.6350574723      -10.7035992454
 H         1.5620710887        0.9763977562      -11.1712360486
 H         0.2747015001        0.5855497197       -9.2873345166
 H         1.7773434565        0.9725522923       -8.3128610098
 H        -1.5860277698       -2.1294213669       -6.2487883894
 H        -1.4732872403       -1.3375342242       -7.8366454009
 H        -2.5864799082        0.3769753284       -7.1308650330
 H        -2.3202624422        0.3961411427       -5.4924733761
 H        -6.0806321656        1.1514435310       -7.3170903399
 H        -7.7193786580        0.8300776372       -6.7735579462
 H        -8.1110326276       -0.9806804329       -8.4626227272
 H        -6.3501696594       -1.0418105223       -8.9779178877
 H        -8.4500571429       -2.0075409703      -12.2952415895
 H        -8.7175548954       -0.7246296734      -13.5204303975
 H       -10.8697944962       -1.6543587080      -13.5420300514
 H       -11.0457391407       -1.0372034431      -11.8552931254
 H       -13.4843338285       -3.1620696090       -9.4313973018
 H       -12.1996218857       -2.0453598194       -9.3174262552
 H       -12.3644200100       -4.6611189741       -7.6652223005
 H       -12.4692098080       -3.1530002822       -7.0205635436
 H        -9.5698497547       -5.7715953565       -3.4857776970
 H       -10.8942305888       -6.0250082273       -4.4719407350
 H       -10.7249575478       -3.5573322781       -2.4651721520
 H       -11.1025989853       -5.2932597131       -2.1387030016
 H       -15.5126044361       -1.2161247212       -3.7825699855
 H       -14.7506444647       -2.2015334794       -5.0479308007
 H       -14.4545548309        0.7371180763       -4.6587926400
 H       -14.6794591156       -0.1899634119       -6.0532438416
 H       -12.0794686831        2.5486406271       -7.9032888773
 H       -11.0422821438        1.2782735086       -8.6200063703
 H        -9.7241198467        2.7781177942       -9.2383126884
 H        -9.2156125085        3.0637954061       -7.4912655228
 H       -10.2168848077        8.0828080306       -7.0035246732
 H        -8.5766283941        8.1890633444       -6.6946707210
 H        -9.6610744221        7.1533246896       -5.6354875845
 H        -9.1637925320        5.2294856915      -10.7708547766
 H        -8.0813408843        4.5077010761       -9.4222834937
 H        -8.0356469557        6.2122061871       -9.8948552154
 H       -11.0216042155        6.6776535087      -10.3119928574
 H       -10.4679004861        7.7811550042       -8.9532164488
 H       -11.7503786770        6.7241830509       -8.6477408103
 H       -12.5190745493        3.4130025792       -5.6604607498
 H       -13.6754131327        2.6131146732       -4.6593473633
 H       -13.6092466673        2.3755681699       -6.3922426471
 H       -10.9160465679        2.5385456567       -3.8656935815
 H       -10.3696482065        0.8778364363       -3.8991331639
 H       -11.9420417262        1.3258286420       -3.1033305186
 H       -15.5888909932       -3.0051385428       -1.9138824714
 H       -14.7826807213       -4.6835460326       -1.6069714269
 H       -15.2392952203       -4.0955250264       -3.2274823708
 H       -12.4970613641       -3.7368554194       -0.6467279304
 H       -13.1606859739       -1.9618778200       -0.4695471803
 H       -11.7171104651       -2.3314959093       -1.4293407108
 H       -10.1035367219       -6.3371230491       -8.0048028588
 H       -11.3515435894       -6.1387334505       -6.6331228727
 H        -9.7125930285       -6.7350525244       -6.3136810003
 H        -7.6789938552       -5.0525498837       -6.4788023753
 H        -8.0161271507       -3.6189337873       -7.2375101576
 H        -8.3752035394       -4.8543070840       -8.2961895766
 H       -13.1138165769       -2.4388655186      -12.3736411367
 H       -13.9139240869       -3.8807531585      -11.8010817320
 H       -13.2330122784       -3.8671264993      -13.2703668730
 H       -10.7851391435       -6.0471262743      -12.2018966150
 H       -12.0038117465       -5.6098823055      -13.2956646498
 H       -12.5595403954       -6.0743918822      -11.8480971660
 H        -7.2269820064        1.3630715300      -13.1624283835
 H        -5.8340801808        1.5162720803      -12.0027261808
 H        -7.4021017574        2.5034611889      -11.7660652308
 H        -5.3974983298       -0.6534794644      -11.0530455314
 H        -6.2765134830       -1.0569921966      -12.4790900590
 H        -6.7317720279       -1.7557200539      -10.8512963232
 H        -4.2770311444       -1.6556090423       -3.6836575568
 H        -4.9199264350       -2.6564004483       -4.8114090819
 H        -6.0319292734       -1.9371359643       -3.7710836482
 H        -4.1447943807        0.6387901170       -3.8491949095
 H        -5.8898107105        1.0912738556       -4.2590271436
 H        -4.4528860323        1.6036890452       -5.2815810927
 H         1.1211359341       -3.2919632124       -5.7610842378
 H         1.9893788141       -3.4923923578       -7.3684085564
 H         0.2268837081       -3.3255216706       -7.2345244932
 H         2.3814425860       -0.3100451749       -5.6182543285
 H         3.4042180324       -0.6877583758       -6.9520915942
 H         3.1440747515       -1.7950854815       -5.9359032749
 H         5.8896548019        2.9948835166      -10.4058554349
 H         4.4135391794        3.6394954738      -10.9680580059
 H         5.6858862223        3.2057491013      -12.1804340782
 H         2.7912416233        1.1069950205      -12.9696425163
 H         4.1633473193        1.9213814644      -13.5743065981
 H         2.9237644534        2.7067095788      -12.4959862220
 H         6.7965777364       -3.7787730809      -10.9773960699
 H         5.7065845327       -4.7741809410      -12.0654242003
 H         5.4974008053       -3.1384910903      -11.8448417129
 H         8.6656605166       -5.1180164093      -12.8542054767
 H         9.1257523256       -3.7939793642      -11.9160730482
 H         9.1988893479       -3.7369665218      -13.8073814733
 H         4.4530119647       -4.9630763788      -19.9687489788
 H         3.7318827779       -4.6769456992      -18.4292274868
 H         4.0058023834       -6.3916939312      -18.9895289417
 H         7.6790311860       -6.5727425844      -18.6307938359
 H         6.4012515035       -6.8372002042      -19.8659356983
 H         6.2386282781       -7.3854191699      -18.1084921362
 H        12.9282757727       -1.1380497648      -20.1103607893
 H        12.5053189743       -2.2800459072      -18.8097844986
 H        11.9593002758       -0.7998324399      -18.6107615358
 H        10.9848879807       -0.1527760050      -21.4356113436
 H         9.5445581606       -0.3177604479      -20.5843067169
 H         9.6774391247       -1.3390125113      -21.8180640213
 Na       -9.7008374546       -1.3465581292       -5.7224703616
 Na        8.1444575712       -2.4099867096      -16.5546058807
