232

 C        11.6120879548       -2.9030241328      -22.4241418706
 C        10.8905706632       -2.8955239717      -21.0925839906
 O        10.4453692308       -3.8960110929      -20.6640687489
 C        10.7902706848       -1.5999112029      -20.2162013195
 C         9.6330007536       -2.0055665003      -19.2285669411
 O         9.7669308724       -2.0282527273      -17.9547971124
 C         8.2812024329       -2.5714626124      -19.6959042801
 C         8.1090561720       -4.0372925895      -19.2135690972
 C         6.6856634308       -4.1743010543      -18.6203988037
 O         6.1893474064       -3.2297167581      -17.9927659415
 C         5.8701031249       -5.5122732250      -18.4836559037
 C         5.7195010959       -5.7455754919      -16.7652924634
 O         6.4267051747       -6.5144160310      -16.1653537474
 C         4.6115140133       -4.8356184032      -16.0437198649
 C         5.0706182519       -4.5587279156      -14.5801089439
 C         6.4891997376       -4.1335043218      -14.4195651626
 O         7.3408439642       -4.1401969352      -15.2848778119
 C         7.1035030155       -3.4583347028      -13.0837665075
 C         7.1617836421       -1.8638689379      -13.4041020739
 O         7.3914615123       -1.4394781446      -14.5027655699
 C         7.2157791803       -1.0324359839      -12.1482149333
 C         6.5697765076        0.3817023761      -12.1395234768
 C         5.1034113901        0.2317653767      -11.5972168565
 O         4.6096581971       -0.8434967505      -11.2832231695
 C         4.2969720524        1.5997996406      -11.5279658741
 C         3.3750213815        1.3916004278      -10.3001217595
 O         3.7318511606        1.9018740301       -9.2793453276
 C         2.0841885721        0.5823040983      -10.3790725099
 C         1.6178405120        0.3349754952       -8.9227554936
 C         1.4304971577       -1.1747085531       -8.5793600137
 O         1.5336332276       -2.0238309720       -9.3875691600
 C         1.2930550541       -1.4581710174       -7.0025534858
 C         0.1129028507       -0.5854456973       -6.4785032103
 O         0.2417580960        0.4751086779       -5.8795915848
 C        -1.2657120717       -1.2604284594       -6.6870504703
 C        -2.4308169717       -0.4529236815       -5.9575016133
 C        -3.7387904002       -1.2143255924       -6.0382898141
 O        -3.8844106120       -2.1570743099       -6.7671697426
 C        -5.0150889542       -0.7240517051       -5.3097022313
 C        -6.4329009854       -0.6192486696       -6.2503864122
 O        -7.3044119950       -1.3922397207       -5.8621514498
 C        -6.5131068831        0.5412012357       -7.2564896963
 C        -7.3954548783        0.0927128247       -8.4566110342
 C        -6.9127484903        0.9035372875       -9.7278526914
 O        -6.3470441959        1.9940151497       -9.6792837458
 C        -7.3018902678        0.2285754686      -11.1855905030
 C        -8.7534602733       -0.3514608497      -11.3958106354
 O        -9.6217738076        0.0854731209      -10.6659869530
 C        -9.0219082667       -1.1329084534      -12.6728223400
 C       -10.4056792912       -1.8558169870      -12.5386636510
 C       -10.4027759775       -3.4221331979      -12.3460793414
 O        -9.5056189552       -4.0618672549      -12.8326311752
 C       -11.5775756141       -4.0629956014      -11.6319201000
 C       -11.2953454691       -4.1214160446      -10.1620678458
 O       -10.6254869685       -4.9465009135       -9.6349784874
 C       -12.1125156132       -3.1237396916       -9.2823994535
 C       -11.8818265932       -3.5079188670       -7.8030511241
 C       -10.4240440036       -3.4987247020       -7.4433428662
 O        -9.7214784992       -2.5385609374       -7.6990130531
 C        -9.7527282240       -4.6362756412       -6.5807140726
 C       -10.0142446855       -4.2669182017       -5.0366313062
 O        -9.6458266259       -3.1535036882       -4.6116182531
 C       -10.5284154209       -5.3807207700       -4.0512703936
 C       -11.1616454015       -4.7063161879       -2.8809226809
 C       -12.5477016620       -4.1855060634       -3.3260031133
 O       -13.0733307426       -4.2897214968       -4.4393403805
 C       -13.3666461154       -3.2793548804       -2.3841623942
 C       -13.3896168200       -1.8208587951       -3.0390877708
 O       -12.6573640119       -0.9452022516       -2.6647463798
 C       -14.2524863664       -1.6558909244       -4.3921492922
 C       -14.0579205454       -0.1464164885       -4.8331426023
 C       -12.6754845302        0.0351001093       -5.3951674727
 O       -12.0351152640       -0.8298903660       -5.9091037285
 C       -11.8708468341        1.3885434058       -5.1306523710
 C       -10.7553907751        1.5618212808       -6.2152050459
 O        -9.6320385210        1.1764665065       -5.9862689344
 C       -11.0108161759        1.9907743300       -7.6433055692
 C        -9.9956826126        3.0517611549       -8.1877057200
 C       -10.6649737696        4.4978496103       -8.3194511714
 O       -11.6704050800        4.7010963312       -7.6833817914
 C        -9.8688566176        5.7041600886       -8.9192295943
 C        -9.0500020385        6.2854448665       -7.6986566626
 O        -8.0587646399        5.7066724444       -7.3387651774
 C        -9.5211893285        7.4436082644       -6.7578008173
 C        -8.9214886614        5.2263387254      -10.0766333139
 C       -10.9405824108        6.7876387946       -9.4804010887
 C       -12.7376142346        2.6568838937       -5.2258465387
 C       -11.2005559005        1.3533564123       -3.7515859519
 C       -14.8221641793       -3.8246274444       -2.4938911811
 C       -12.8467467660       -3.1709050141       -0.9110082010
 C       -10.2046117798       -6.0813337087       -7.0608209406
 C        -8.1562622412       -4.6170994965       -6.6681525479
 C       -12.8324137777       -3.2593315323      -11.9412991357
 C       -11.8639917834       -5.5224359068      -12.1633687719
 C        -7.2509942826        1.4275461615      -12.1756888583
 C        -6.2796741805       -0.8634785325      -11.5998451666
 C        -5.3025711951       -1.8716385788       -4.2698527868
 C        -4.9731767871        0.6061249175       -4.5048143951
 C         0.9214217548       -2.9136870017       -6.8134052089
 C         2.5459270298       -1.0887621218       -6.2491211847
 C         5.2036771539        2.8549382602      -11.4526201966
 C         3.4741092546        1.5677621689      -12.7947808648
 C         6.2530710463       -3.7262590011      -11.8925023111
 C         8.5217553501       -4.0013214741      -12.9403530710
 C         4.5089241583       -5.4261440942      -19.2831444223
 C         6.5519276085       -6.7773501916      -18.9916566059
 C        12.0682690772       -1.3012255153      -19.5052987865
 C        10.3258325394       -0.3944740805      -21.0059054271
 H        11.2415400077       -3.8531882316      -22.9310149071
 H        12.6477755095       -3.2212635604      -22.3243736334
 H        11.5938167791       -1.9294838991      -23.0183836507
 H         7.9857858322       -2.5124323866      -20.7559536546
 H         7.4483769811       -2.0582181161      -19.1626158535
 H         8.6990979807       -4.3026693090      -18.3617718984
 H         8.1396921463       -4.6616841868      -20.0898671406
 H         3.6951892865       -5.4197424224      -16.1343758547
 H         4.5251035054       -3.9309217831      -16.6580437785
 H         4.7493115982       -5.3100163353      -13.9786943055
 H         4.5363988343       -3.5980384425      -14.1127084977
 H         8.2746787143       -0.7641513826      -12.0693110608
 H         6.8701669988       -1.5561240380      -11.2485986980
 H         6.5209213477        0.8368506198      -13.1493706754
 H         7.2055095548        0.8748636227      -11.3883512919
 H         2.2873248109       -0.4524286390      -10.8254220595
 H         1.4351148109        1.1385234989      -11.0169028800
 H         0.6830192859        0.9416409237       -8.7995207492
 H         2.3432861180        0.7277765213       -8.2123680790
 H        -1.3120094722       -2.2522386134       -6.3706587822
 H        -1.4814782611       -1.3262529544       -7.7911706887
 H        -2.5281342256        0.5625872798       -6.4281432374
 H        -2.1772275968       -0.2002595701       -4.9360321709
 H        -5.5537063002        0.8416762110       -7.6278666809
 H        -6.8345949267        1.4307070734       -6.7774342212
 H        -8.4364321809        0.3731667747       -8.3140833148
 H        -7.3984833423       -0.9047391699       -8.7050519314
 H        -8.3109318384       -1.9457997556      -12.7706675595
 H        -9.0214685434       -0.3631697977      -13.5173538952
 H       -10.7907059337       -1.7538554862      -13.6138986129
 H       -11.0910647413       -1.3550540499      -11.8735096354
 H       -13.2278895253       -3.1309348611       -9.3281794017
 H       -11.7911020448       -2.1155119341       -9.4997324399
 H       -12.2952734714       -4.4792007892       -7.5453835315
 H       -12.4814610276       -2.7902438588       -7.1686032301
 H        -9.5923894351       -5.9094917891       -3.8753622172
 H       -11.0395038993       -6.1590484825       -4.5958906244
 H       -10.4284683749       -3.9772782742       -2.5067898802
 H       -11.3211765251       -5.3557267470       -2.0826401008
 H       -15.3462981050       -1.8121629913       -4.2036151345
 H       -13.7505294636       -2.4852118152       -5.0373173434
 H       -14.3423562447        0.4145392772       -3.9448424790
 H       -14.8456717855        0.1421840767       -5.5402956288
 H       -11.9372339343        2.4836623545       -7.8217160438
 H       -10.9965345888        1.0870411923       -8.2645092870
 H        -9.6471823070        2.6746824639       -9.1493219976
 H        -9.1243212350        3.0335896930       -7.6111084186
 H       -10.4478351987        7.2886835514       -6.2513601704
 H        -9.7372405556        8.3629944151       -7.3876413710
 H        -8.8003015179        7.5182993487       -5.9449364574
 H        -9.4155656610        4.4940461318      -10.6214525559
 H        -8.0024084481        4.6867321266       -9.7497645142
 H        -8.7611253926        6.0867193639      -10.7391632107
 H       -11.6140950934        6.1629238027      -10.1300862155
 H       -10.2196212992        7.4608631070       -9.9433475278
 H       -11.5968228321        7.3181461135       -8.8046687996
 H       -12.0792311090        3.5822623898       -5.2395084976
 H       -13.3311284506        2.7028993387       -4.3108447059
 H       -13.3844347241        2.5711748086       -6.2120131795
 H       -10.3409741040        1.9897549815       -3.6936144257
 H       -10.8998236851        0.3249080560       -3.5382792376
 H       -11.9773935805        1.6344962760       -3.0158656850
 H       -15.4358078997       -3.1840137368       -1.8572000788
 H       -14.8073411085       -4.7649978152       -2.0136398230
 H       -15.2614061050       -4.0034982655       -3.4473864782
 H       -12.6873699307       -4.1278087719       -0.4831828011
 H       -13.5865809507       -2.5652595018       -0.3742650461
 H       -11.9744635667       -2.5817518640       -0.9633002071
 H        -9.9383436197       -6.0334107478       -8.0824815270
 H       -11.3056140694       -6.1682955934       -6.8899291392
 H        -9.6976675020       -6.8674775746       -6.5834934175
 H        -7.5720043624       -5.4231551317       -6.1884373939
 H        -7.8025949820       -3.7064328246       -6.2914256107
 H        -7.9363233389       -4.3998143007       -7.6747470439
 H       -12.7088818621       -2.2741701567      -11.4084897303
 H       -13.7887820146       -3.7731984263      -11.6865342399
 H       -13.0238688926       -2.9940603228      -13.0080337828
 H       -10.9396765526       -6.1391651825      -12.0421464786
 H       -11.9486149328       -5.5072839401      -13.2405077931
 H       -12.7928046205       -6.0137768993      -11.8503836595
 H        -7.2088072558        1.0803482615      -13.2031899386
 H        -6.3740531627        1.8914627095      -11.8429684436
 H        -8.0801781192        2.1405000112      -12.1642726172
 H        -5.2422387326       -0.5612399705      -11.3495473185
 H        -6.3364794348       -0.9115380728      -12.6955003037
 H        -6.4185269905       -1.8758473582      -11.1962150165
 H        -4.4433724629       -2.1719067224       -3.6688810631
 H        -5.7409323103       -2.8287511786       -4.5972304905
 H        -6.0798758482       -1.5074310299       -3.5997356616
 H        -4.0027998432        0.7508624100       -4.0690528285
 H        -5.7116976814        0.5578678164       -3.7441598362
 H        -5.1102975615        1.4130747892       -5.2543786032
 H         0.5254614266       -3.2570355363       -5.8550304914
 H         1.8310975322       -3.5311778486       -7.1011202561
 H         0.1401574655       -3.2621664058       -7.5396331166
 H         3.3048562437       -0.7009183638       -6.8840526672
 H         2.8694900776       -1.8495287954       -5.5780015726
 H         2.5707595745       -0.3454105351       -5.4809945866
 H         5.6956840957        2.7320195820      -10.4059162984
 H         4.5672890779        3.7380203682      -11.3973404554
 H         5.9424297374        2.9283419138      -12.1569836849
 H         3.0176436099        0.5716026895      -12.9766849732
 H         4.1480231728        1.7234375786      -13.6457728978
 H         2.6747401582        2.3486625485      -12.8310172916
 H         6.7480978933       -3.3530468236      -10.9438076046
 H         6.1937971251       -4.8710783985      -11.8090347947
 H         5.2289211203       -3.3778779075      -11.9075019882
 H         8.4914563139       -5.0787950906      -12.7210050556
 H         8.9483600594       -3.5380518105      -12.0702238392
 H         9.0833673230       -3.7765713469      -13.8706200707
 H         4.8399905015       -5.6950895046      -20.2687822750
 H         4.0501149236       -4.5009025997      -19.3718008910
 H         3.7880626801       -6.2224841364      -18.9782234409
 H         7.2187711342       -7.0915503754      -18.1833228093
 H         7.1484159178       -6.4562414156      -19.8656678737
 H         5.8546114069       -7.5062157311      -19.3229407117
 H        12.8542685410       -1.1032225016      -20.2832752017
 H        12.3288864855       -2.0671664333      -18.8179745971
 H        11.9866394076       -0.3818236143      -18.9009887768
 H        11.0121946549       -0.2341009015      -21.9054193511
 H        10.3208332525        0.6025303634      -20.4617484238
 H         9.3012574947       -0.4524877842      -21.3625611798
 Na       -9.5824328305       -1.0840330188       -5.8661619354
 Na        7.9578343402       -2.4437633003      -16.5679470463
