232

 C        11.2350892960       -2.4690131714      -22.6526510537
 C        10.7513431924       -2.7465155138      -21.2378612555
 O        10.7179111025       -3.9090730824      -20.9782281580
 C        10.4592271636       -1.5842919333      -20.1791978494
 C         9.3161913605       -1.6963151750      -19.1440035337
 O         9.5126439718       -1.4545921384      -17.9243046033
 C         7.9737369236       -2.2657105855      -19.6931383513
 C         7.8176381807       -3.7745767470      -19.2891684988
 C         6.6988778870       -4.0193381443      -18.3569756498
 O         6.1219145115       -3.1577948974      -17.7094315226
 C         5.9956960385       -5.4496153345      -18.4125441858
 C         5.7497757725       -6.0129142686      -16.8778088461
 O         6.1159961257       -7.0648184293      -16.3963516346
 C         4.7741168746       -5.0273084849      -16.1000969958
 C         5.2332844750       -5.0274325063      -14.5958473374
 C         6.4575299317       -4.1784009779      -14.5240957793
 O         7.2010847778       -4.1056207378      -15.4765738163
 C         6.8666499478       -3.4103208293      -13.2451911954
 C         6.9245862653       -1.8815863852      -13.6072351969
 O         6.6633268948       -1.3923647213      -14.6578045260
 C         7.1898709678       -1.0934807200      -12.3353866587
 C         6.6494958393        0.3619284729      -12.3640098189
 C         5.1171500778        0.3026335850      -11.6647404144
 O         4.8289613391       -0.8023782644      -11.2337607045
 C         4.1585764493        1.5209125041      -11.6086721075
 C         3.4742920964        1.5031444378      -10.1956206971
 O         3.9378547368        1.9964448735       -9.1526202002
 C         2.1238860170        0.7474149102      -10.1730206127
 C         1.6148185970        0.5264102251       -8.8025989773
 C         1.5524731698       -0.9626725940       -8.4748630331
 O         1.5702528631       -1.8499031443       -9.2721717667
 C         1.3118678231       -1.5120158075       -6.8560759283
 C         0.0102287590       -0.8852724732       -6.5027560147
 O         0.1023226513        0.2412962239       -6.0445054037
 C        -1.4032694125       -1.5827311555       -6.7616520461
 C        -2.3672681326       -0.7959145603       -5.7287103770
 C        -3.7331079327       -1.2416905673       -6.0947005426
 O        -3.9851187729       -1.9611943657       -7.0305953696
 C        -5.0428096753       -0.6339160442       -5.2129059385
 C        -6.1977272964       -0.6526382286       -6.2283356660
 O        -7.3239831464       -0.9528691668       -5.8637557204
 C        -5.8530761197        0.0227577604       -7.5640596958
 C        -7.1247647181        0.1766110567       -8.4940759719
 C        -6.6999245496        0.9473222222       -9.7909150020
 O        -6.1059146099        1.9880845598       -9.6626227031
 C        -7.1285593762        0.3144621631      -11.0962744511
 C        -8.4986065632       -0.5473477759      -11.0108072326
 O        -9.1744577056       -0.5564045688       -9.9529480456
 C        -8.8522684420       -1.2803371208      -12.3184536873
 C       -10.3393641831       -1.7645901206      -12.3145836627
 C       -10.4993479082       -3.3000011300      -12.3752076249
 O        -9.5700305304       -3.9329534928      -12.8197788861
 C       -11.7972356664       -4.1141316620      -11.8555672596
 C       -11.3733302680       -4.2845145927      -10.3151463904
 O       -10.4436198724       -4.9608730023      -10.0067452400
 C       -11.9741369523       -3.4260155137       -9.2297690138
 C       -11.5653044377       -3.8535168349       -7.8761376425
 C       -10.0941312691       -3.6501284525       -7.4865471050
 O        -9.4145893192       -2.7588632844       -7.9327605893
 C        -9.5985875614       -4.6969441611       -6.3820218012
 C       -10.2332120805       -4.3182044669       -5.0627748726
 O       -10.4602424731       -3.1353797734       -4.7319017883
 C       -10.3090525640       -5.4258235734       -3.8814508198
 C       -11.2575753445       -4.9057817217       -2.8010909259
 C       -12.6055349480       -4.2337587052       -3.3349134514
 O       -13.0213765694       -4.2723798872       -4.4932231190
 C       -13.5914725331       -3.4534579973       -2.3716857978
 C       -13.4360080943       -1.9038098391       -2.7584098224
 O       -12.7433658865       -1.1244996778       -2.1565323301
 C       -13.8830755503       -1.4861337301       -4.1612566369
 C       -13.5949749534        0.0008830800       -4.5049019947
 C       -12.2806484948        0.1747557977       -5.1846579496
 O       -11.9037533947       -0.5591021299       -6.0375071938
 C       -11.5528054515        1.6026072239       -5.0171970372
 C       -10.5682233514        1.7333001525       -6.1991253372
 O        -9.4011688769        1.5589472547       -5.9387992101
 C       -11.1714080443        1.8858170733       -7.6254032888
 C       -10.1738063007        2.8864595864       -8.3766818966
 C       -10.7273421533        4.4705243675       -8.2199140828
 O       -11.6387276987        4.7087161084       -7.4925232562
 C       -10.0050586784        5.6335428602       -9.0884162905
 C        -9.0217992932        6.3550552947       -8.0539785153
 O        -7.8985872721        5.9171715273       -7.9554042240
 C        -9.4496327921        7.3666742210       -7.0429239970
 C        -9.0889362065        4.9509183745      -10.1213673951
 C       -10.9897917903        6.6042526283       -9.7195241369
 C       -12.5285209242        2.8194966425       -5.0974412682
 C       -10.8757208425        1.5871802070       -3.5676391252
 C       -15.0895863927       -3.7190489281       -2.6539937868
 C       -13.1068918619       -3.6704260041       -0.8744383379
 C        -9.8085279900       -6.1115105334       -6.9327543069
 C        -8.0238314576       -4.4301865003       -6.1416244534
 C       -13.1274962543       -3.3172243182      -12.0254957775
 C       -11.8356390396       -5.5697699773      -12.2689330085
 C        -7.2546409828        1.3942487629      -12.2204360552
 C        -5.9225144161       -0.6909341783      -11.4395502124
 C        -5.5125923539       -1.6537764327       -4.1440549009
 C        -4.9754211799        0.8296688404       -4.5284227995
 C         1.1469442194       -3.0442972813       -6.9497785920
 C         2.4647905720       -1.0638636835       -5.9312857709
 C         5.0195293301        2.8089690110      -11.7963220568
 C         3.1310283368        1.3145579137      -12.6772825635
 C         5.9313523973       -3.7600079514      -12.0905703517
 C         8.2435451862       -4.0874237343      -12.9447537079
 C         4.5618744026       -5.3660185338      -18.9944427310
 C         6.8042338496       -6.5870718625      -19.2775601939
 C        11.8202125496       -1.4141058437      -19.4094283731
 C        10.0433773760       -0.3048572576      -20.8925548108
 H        12.2501543417       -2.8028678477      -22.7246178989
 H        11.2634833147       -1.4984685454      -22.9919638970
 H        10.4528133452       -2.9113242731      -23.3234672074
 H         7.8999723834       -2.2276734573      -20.8121460866
 H         7.1464849465       -1.5846492532      -19.4686534540
 H         8.7637958556       -4.0055413327      -18.8579061886
 H         7.5232967414       -4.3617989769      -20.1972598260
 H         3.7877440215       -5.4551039039      -16.2355374865
 H         4.8607603751       -3.9762654466      -16.4818758152
 H         5.3968988756       -6.0018036343      -14.2982096065
 H         4.3693988279       -4.6768705113      -13.8913914269
 H         8.2559125379       -1.1863947035      -12.1655443460
 H         6.6599717601       -1.5623115862      -11.4923711737
 H         6.6496349098        0.6150244845      -13.4506416508
 H         7.2689721407        0.9485537258      -11.6504777337
 H         2.2889737617       -0.1544506316      -10.7826590818
 H         1.4710516376        1.3234446437      -10.7173872546
 H         0.5205301475        0.7924756532       -8.8107524200
 H         1.9757576406        1.2711965308       -8.1126122028
 H        -1.4985183524       -2.6347821580       -6.6167673668
 H        -1.8091738041       -1.5645560128       -7.8137579282
 H        -2.3231092322        0.3062766380       -5.8747039737
 H        -2.1415494897       -1.1123266343       -4.7017964908
 H        -5.0593174137       -0.4320609924       -8.1057728838
 H        -5.4275849515        0.9778228231       -7.3026694642
 H        -8.0059870097        0.7223648101       -8.1804882195
 H        -7.4207168039       -0.7693273803       -8.7164439472
 H        -8.2254462976       -2.1422769800      -12.2612010109
 H        -8.6519151684       -0.5837096980      -13.1685463428
 H       -10.9959204960       -1.4637231946      -13.1973897830
 H       -10.8225753423       -1.2726221255      -11.4793024972
 H       -13.0981224094       -3.4275114221       -9.3261503681
 H       -11.5073020646       -2.4656381968       -9.3564296944
 H       -11.7300086413       -4.9483325836       -7.7489408139
 H       -12.0891869345       -3.3284538674       -7.0151896794
 H        -9.2891877630       -5.5991440828       -3.4991520624
 H       -10.5620041872       -6.4365684171       -4.2348133929
 H       -10.7650773185       -4.3223560928       -2.0316740122
 H       -11.5232136391       -5.7926112150       -2.2638623715
 H       -14.9635553050       -1.6556501980       -3.9932993372
 H       -13.5203158891       -2.1188727811       -5.0195992106
 H       -13.7098076797        0.6306149170       -3.5746496387
 H       -14.4365510269        0.2890454813       -5.1911436980
 H       -12.1264874969        2.3167644971       -7.6970268375
 H       -11.1557149966        0.9401168457       -8.1303896910
 H       -10.2434679759        2.6591938603       -9.4487522971
 H        -9.1869450513        2.6686956919       -8.2233179166
 H        -9.9207944478        6.9863795361       -6.1483905989
 H       -10.1965778307        8.0210274327       -7.5621769909
 H        -8.6469310631        7.9420862305       -6.5947731546
 H        -9.6217887885        4.3787435745      -10.8435828222
 H        -8.4069356662        4.2068356281       -9.6763862788
 H        -8.5274180418        5.7249918656      -10.5943288711
 H       -11.3632782959        6.2293577920      -10.7327846383
 H       -10.4206786784        7.5392920951       -9.8883192969
 H       -11.8448635469        6.7358179470       -9.0683274919
 H       -11.8037739140        3.6621972120       -5.3139401066
 H       -12.9526293952        2.9782899237       -4.1224432632
 H       -13.3005685284        2.5839201816       -5.8533584254
 H       -11.0186785699        2.5903494956       -3.1974410603
 H        -9.8001170560        1.4104752272       -3.5162256409
 H       -11.4129903359        0.8081832700       -2.9161809273
 H       -15.6957357742       -3.0592536861       -1.9774603732
 H       -15.3776726475       -4.7513424589       -2.2979427032
 H       -15.2891954957       -3.6872434090       -3.7400595944
 H       -12.9550543345       -4.6969944934       -0.6460200333
 H       -13.9038999140       -3.3091910651       -0.1568219975
 H       -12.2005810472       -3.0718317176       -0.7827904604
 H       -10.1234366131       -6.0313859950       -7.9934098436
 H       -10.4825037655       -6.6431389975       -6.3092440846
 H        -8.7971230773       -6.5554494449       -6.8322301549
 H        -7.7755132634       -5.0088011501       -5.1596534902
 H        -7.8312908118       -3.3710283311       -6.0952448200
 H        -7.3316202696       -4.9178075698       -6.8076245043
 H       -13.2722155572       -2.2963065421      -11.6866417201
 H       -13.8480926066       -3.8545703668      -11.3678017633
 H       -13.4218323432       -3.3257240002      -13.0618649630
 H       -10.9504418683       -6.1453728492      -12.0219593995
 H       -11.9663769579       -5.6484059317      -13.3238797227
 H       -12.6567475624       -6.0425574628      -11.7377669816
 H        -7.4138459464        0.8662354553      -13.1715390473
 H        -6.4238908750        2.0913741381      -12.1330640892
 H        -8.1737332293        2.0076270641      -12.0586463150
 H        -5.0158902606       -0.2951546202      -11.7215145041
 H        -6.2872185207       -1.4690747674      -12.1491329718
 H        -5.7622988020       -1.3912556890      -10.5492535599
 H        -5.0224806599       -1.7852068311       -3.2244964029
 H        -5.6209603257       -2.5966500801       -4.6784525633
 H        -6.4901064824       -1.4345907717       -3.8107542787
 H        -4.1550640011        0.7858917820       -3.8322967812
 H        -5.8411524254        1.0973809840       -3.9623310098
 H        -4.7603020097        1.4990131303       -5.3844052673
 H         0.9393569673       -3.4783913009       -6.0251509984
 H         2.0118969228       -3.6616493331       -7.3125766153
 H         0.3147326635       -3.3002178356       -7.5201324407
 H         2.6548644450       -1.6337270815       -4.9689659961
 H         2.3627610318        0.0414801619       -5.6274512387
 H         3.5462250763       -1.0716419238       -6.3074345249
 H         5.8974350589        2.7197694158      -11.1148924482
 H         4.3511474482        3.6293565748      -11.6879142687
 H         5.3471990331        3.0025432439      -12.7841845988
 H         2.7098465962        0.3255731122      -12.6282495840
 H         3.6605667832        1.4861269756      -13.5964635272
 H         2.4274997138        2.1516531510      -12.7449019161
 H         5.9533302650       -3.4030632387      -11.1016182247
 H         6.0012808442       -4.8481961056      -11.8495710569
 H         4.8930850874       -3.4603862476      -12.4557083484
 H         8.1369992005       -5.1279752131      -13.0189948021
 H         8.6147358125       -3.7335697481      -12.0052295557
 H         8.9662609876       -3.6708510925      -13.7018595467
 H         4.4916670280       -4.8032074705      -19.8890906168
 H         3.8622206763       -4.9558114472      -18.2441242595
 H         4.2325663342       -6.4742332135      -19.1039802001
 H         7.8641819779       -6.4285804222      -19.0723775843
 H         6.5227067470       -6.6323749846      -20.2720281382
 H         6.4670768054       -7.5321724643      -18.9077917671
 H        12.6446874380       -0.9040519791      -20.0360120650
 H        12.2125064368       -2.3872191625      -19.1269741420
 H        11.6540886030       -0.6353783908      -18.6290496739
 H        10.9148148311        0.2768956807      -21.3069575643
 H         9.5531794111        0.4234027354      -20.2266751277
 H         9.5061903397       -0.3700617139      -21.8428844414
 Na       -9.4992197975       -1.2537345269       -6.1623323003
 Na        7.6989687965       -1.9076904470      -16.4498187365
