232

 C        11.1079187187       -2.2985232356      -22.6614411476
 C        10.6892115627       -2.6784965206      -21.2890806649
 O        10.6431379110       -3.8566561978      -20.8422262628
 C        10.3980399545       -1.4611267853      -20.1874925506
 C         9.2875063461       -1.7262253259      -19.1687023087
 O         9.3553492201       -1.4873871254      -18.0116764893
 C         8.0103762394       -2.2090205096      -19.7084306385
 C         7.8218721036       -3.7470950696      -19.3920689210
 C         6.5796444092       -4.0563869753      -18.4551221231
 O         6.1251293594       -3.1779935809      -17.7267083359
 C         5.9909997218       -5.4654411517      -18.3490488264
 C         5.7166287179       -5.9461953902      -16.9533688631
 O         6.0760757345       -7.0603865746      -16.6715731606
 C         4.7404329270       -5.2374424285      -16.0512062479
 C         5.3098729908       -5.2206622267      -14.5915431730
 C         6.4419968167       -4.2275746324      -14.5517504011
 O         7.2341613415       -4.0333166122      -15.5230777783
 C         6.7076157934       -3.4590955120      -13.2824339443
 C         6.7761926380       -1.9154211339      -13.4613918677
 O         6.6046508196       -1.3992969497      -14.5813750672
 C         7.3585656613       -1.0130398571      -12.3700590219
 C         6.5347103656        0.3378508894      -12.2966883738
 C         5.1986728111        0.2457938136      -11.6205790857
 O         4.6875291682       -0.7707682631      -11.2757594297
 C         4.2994997299        1.4855942270      -11.6165389912
 C         3.5491569750        1.4459832807      -10.2419367580
 O         3.9237140516        1.9882987267       -9.2372782823
 C         2.0466869487        0.7254602364      -10.1127339703
 C         1.6610458678        0.4935626264       -8.6153901523
 C         1.6267828636       -0.9743042876       -8.3852340016
 O         1.5859235344       -1.7582152978       -9.3296187884
 C         1.4075974054       -1.5306215911       -6.9498665395
 C         0.0011057377       -0.8552149928       -6.4266821920
 O        -0.0581331924        0.2872179651       -6.0421908604
 C        -1.2322045297       -1.6028681811       -6.5812225052
 C        -2.3405018515       -0.9721745816       -5.5994979080
 C        -3.7567802639       -1.2718376233       -6.0096229779
 O        -3.9434143564       -2.0182480641       -6.9599600400
 C        -5.0287276841       -0.6394951523       -5.3147101104
 C        -6.2676160348       -0.4179536828       -6.2093700078
 O        -7.3869455706       -0.7504875298       -5.8785652947
 C        -5.7660388811        0.0732198213       -7.5168440086
 C        -7.0827547016        0.1697751892       -8.3812946974
 C        -6.7240441594        0.9307311044       -9.6642561669
 O        -6.1633709934        1.9873078761       -9.7015879382
 C        -7.1082660250        0.2402210537      -11.0861399202
 C        -8.3979683060       -0.5423938300      -11.0407313439
 O        -9.0446070257       -0.5600490359       -9.9885574191
 C        -8.9475083306       -1.3474585325      -12.2152352588
 C       -10.4122748636       -1.7641319425      -12.2289957243
 C       -10.4785418881       -3.2909467723      -12.4505833686
 O        -9.5515221815       -3.9828339267      -12.8600825628
 C       -11.7518957696       -4.1555361227      -11.7767337627
 C       -11.2671012253       -4.1691259717      -10.2733697391
 O       -10.4438521404       -5.0706331252      -10.0496869228
 C       -11.9711005594       -3.3195701077       -9.1773764866
 C       -11.5707235717       -4.0015443768       -7.8761529838
 C        -9.9970754743       -3.8035414042       -7.5237024135
 O        -9.4253230343       -2.7975456041       -7.9681593573
 C        -9.4543914701       -4.7712999130       -6.4556577519
 C       -10.2266343156       -4.2542481566       -5.1112238898
 O       -10.3390401541       -3.0896683454       -4.9102791233
 C       -10.4624399799       -5.2828873479       -3.9397781494
 C       -11.4767672169       -4.8583558114       -2.7560842622
 C       -12.6735389772       -4.2924156196       -3.2998724735
 O       -12.9696078242       -4.4518764620       -4.4762147673
 C       -13.5734702769       -3.4162324458       -2.3781209193
 C       -13.3266769875       -1.8602721261       -2.7353577580
 O       -12.7339782744       -1.1507087043       -1.9582665874
 C       -13.9070042937       -1.4756382530       -4.1533829316
 C       -13.5937727872        0.0409751972       -4.3527224295
 C       -12.3494618441        0.2496479286       -5.1646909484
 O       -11.8298793772       -0.6353786629       -5.8487786401
 C       -11.5707434430        1.6242515535       -4.9635597049
 C       -10.5142544630        1.7285440316       -6.1373721130
 O        -9.2904218646        1.5885218401       -5.9968405903
 C       -11.0509004661        2.0345093159       -7.5277575354
 C       -10.3277966303        2.9538080670       -8.5033387655
 C       -10.6764119831        4.3865277994       -8.3097154528
 O       -11.5316530082        4.6571364292       -7.4742214352
 C        -9.9391494493        5.5035393660       -9.0883132871
 C        -9.0011427211        6.2451250682       -8.1057083007
 O        -7.8262338147        5.9930337258       -8.1074912090
 C        -9.5388821680        7.3587376371       -7.1259339314
 C        -9.1035839139        4.9967994457      -10.2569092248
 C       -11.0239857980        6.4931707846       -9.6743181048
 C       -12.4973111146        2.8889157175       -5.0117189447
 C       -10.7203935296        1.6286459686       -3.6707359154
 C       -15.0506541606       -3.8356047472       -2.6897643315
 C       -13.2888075592       -3.6396630554       -0.8718140771
 C        -9.6622106770       -6.2665767390       -6.9810399733
 C        -8.0847788878       -4.2867938637       -5.9675512311
 C       -13.0597462837       -3.4343040839      -12.0129300816
 C       -11.9234110216       -5.5487589187      -12.3740602662
 C        -7.1983856596        1.3771997266      -12.0971372978
 C        -5.9554204444       -0.6810406305      -11.4537629285
 C        -5.4247690845       -1.6591381863       -4.0884837492
 C        -4.9168327204        0.7484720565       -4.7318393708
 C         1.2828990005       -3.0268637305       -7.0197301538
 C         2.4601850929       -1.1216905766       -5.9305870557
 C         4.9349494050        2.9440610842      -11.8042687547
 C         3.1605829428        1.2513568812      -12.7422446267
 C         5.8510332306       -3.7237562554      -12.0052503932
 C         8.1984214833       -3.9591703902      -12.9657190536
 C         4.5974701027       -5.4304662896      -19.0484415331
 C         6.7790819150       -6.5186681111      -19.2001861761
 C        11.7542077593       -1.4167624996      -19.3393483020
 C        10.0540920695       -0.1875719202      -20.9826094046
 H        12.2146469038       -2.1448993299      -22.5943654389
 H        10.7291158583       -1.2524601975      -22.9848201729
 H        10.6878497925       -2.9239145161      -23.4582825587
 H         7.9189121921       -1.9409623434      -20.7788750396
 H         7.1911276358       -1.5665049712      -19.3071568828
 H         8.6913610725       -3.9613861731      -18.8667457342
 H         7.6646418369       -4.3510894873      -20.3470433816
 H         3.8905880872       -5.8811469409      -16.0593476707
 H         4.4665434448       -4.1865945549      -16.3212041567
 H         5.7199197599       -6.2629395829      -14.2828819248
 H         4.5358882312       -5.0626916563      -13.9512122158
 H         8.3931018286       -0.8863172971      -12.7639553764
 H         7.3796104941       -1.4454853057      -11.3323783420
 H         6.4211278647        0.6544227596      -13.3548659925
 H         6.9678414915        1.0473533477      -11.6044036048
 H         2.1142915857       -0.2198107938      -10.6484327949
 H         1.3309472297        1.3257481884      -10.7341143028
 H         0.7743884394        0.9694219582       -8.1981933446
 H         2.4213593007        1.0112667326       -7.9862520149
 H        -1.0505788977       -2.6883131146       -6.4932319116
 H        -1.5671432910       -1.5853708137       -7.5849348919
 H        -2.2971849137        0.0294554398       -5.7757030836
 H        -2.0780610528       -1.2251265933       -4.5260411055
 H        -5.0728311961       -0.5929378301       -7.9189642233
 H        -5.2270410181        1.0292979023       -7.4065318182
 H        -7.9159668980        0.6735799025       -7.9824694433
 H        -7.4129724145       -0.8740820326       -8.6400393434
 H        -8.2916294566       -2.2360895337      -12.3350791646
 H        -8.8862764403       -0.6063266402      -13.0338331595
 H       -11.0735726235       -1.3261343058      -12.9560173492
 H       -10.8866194782       -1.4080188379      -11.2548584336
 H       -13.0272843718       -3.5130272364       -9.4139432882
 H       -11.6547134459       -2.2783585977       -9.1649476598
 H       -11.8722254576       -5.0903585828       -7.9218622332
 H       -11.9748594113       -3.5610844699       -6.9795909001
 H        -9.4893009010       -5.4446890029       -3.4740935356
 H       -10.6585565536       -6.2759121339       -4.4172185195
 H       -11.0616203971       -4.1342265153       -2.1767173663
 H       -11.4942795668       -5.7118258930       -2.0614157984
 H       -15.0055434335       -1.8872702275       -4.1649686881
 H       -13.2878180217       -2.0594608100       -4.9230006925
 H       -13.4795646919        0.4849982470       -3.3252146735
 H       -14.4301779874        0.5306557204       -4.7966732958
 H       -12.0855298730        2.3648172414       -7.5075274382
 H       -10.9845055682        1.1034851046       -8.0663419116
 H       -10.3450368513        2.5497477255       -9.5066584796
 H        -9.2885707724        2.8811133814       -8.3665737633
 H       -10.1634098487        6.9444121435       -6.2560520376
 H       -10.1970683251        8.0107300108       -7.6583528812
 H        -8.8162992573        7.9459356494       -6.5431254563
 H        -9.7320948196        4.2266138398      -10.8439148186
 H        -8.2217256877        4.4684571831       -9.9903618365
 H        -8.8211948667        5.7971442424      -10.8726932666
 H       -11.6351050093        6.1602865653      -10.5447626685
 H       -10.3716721287        7.3295017294      -10.0392681598
 H       -11.6513854404        6.8202616920       -8.7725742706
 H       -11.7699797071        3.7150584014       -5.2623205658
 H       -12.9256386523        3.0503359352       -3.9262804058
 H       -13.3007534334        2.6567121446       -5.7030004734
 H       -10.7897409468        2.5969157020       -3.1350389765
 H        -9.6731483691        1.5409339113       -3.9488017799
 H       -10.9348388895        0.7321316015       -3.0557470733
 H       -15.8240872469       -3.3114148613       -2.1995546423
 H       -15.2080342318       -4.9149661267       -2.4539688380
 H       -15.0584650368       -3.7692814264       -3.7650222093
 H       -13.1762174265       -4.6929751723       -0.7286320214
 H       -14.1025646094       -3.3720251194       -0.2389006181
 H       -12.3730743477       -3.1256513149       -0.5789346840
 H       -10.2544751215       -6.2671155971       -7.8908621780
 H       -10.1556898802       -6.7272944559       -6.2026664680
 H        -8.6519673003       -6.7270971475       -7.0626294904
 H        -7.7170755455       -4.7972925483       -5.1282925796
 H        -8.2061922554       -3.2071612916       -5.8454569883
 H        -7.3168088447       -4.5416703578       -6.6616009249
 H       -13.2518798383       -2.4164435317      -11.6254961112
 H       -13.8466147660       -3.9732400926      -11.4015302076
 H       -13.2364527811       -3.4118017771      -13.0941668306
 H       -11.2082735648       -6.3120121678      -12.1447599033
 H       -11.9422098230       -5.3549185495      -13.4826806667
 H       -12.8586025413       -6.0077896146      -12.0110217868
 H        -7.2495443220        1.0409931652      -13.1140981416
 H        -6.3823588026        2.1052349078      -11.8311973571
 H        -8.0887700230        1.8955029282      -11.8360470653
 H        -5.0079544748       -0.1998348710      -11.6232097853
 H        -6.1579917983       -1.4132227959      -12.2315909731
 H        -5.8330773634       -1.3756918087      -10.5813602183
 H        -4.7867969603       -1.5758260358       -3.2302427797
 H        -5.4433825208       -2.6760759840       -4.4280024328
 H        -6.3563812719       -1.4782700801       -3.5827522638
 H        -3.9558908679        0.9236247208       -4.2501644669
 H        -5.6802987717        0.7870208506       -3.9266842958
 H        -5.1412257828        1.4613900051       -5.4621585608
 H         0.9391845488       -3.4867899516       -6.0391017738
 H         2.2316573833       -3.5738849304       -7.1403645549
 H         0.6019245033       -3.4334947906       -7.7833529303
 H         2.0644512334       -1.0728996387       -4.8749964729
 H         2.7682826322       -0.1031544519       -6.0880460202
 H         3.4122343841       -1.6048417942       -5.7880836299
 H         5.7378322643        3.1664221837      -11.2602269354
 H         4.0946023012        3.5740358991      -11.7366197278
 H         5.1464466894        3.1436642713      -12.8863918740
 H         2.8758929272        0.2095662364      -12.7351665699
 H         3.5880275609        1.5839273901      -13.6992658830
 H         2.3417968607        1.9613378318      -12.6469489322
 H         6.1730749185       -3.0839318937      -11.1764925181
 H         5.9602723665       -4.6469143409      -11.4581206558
 H         4.7816567296       -3.3220956171      -12.0559544785
 H         8.1912684927       -4.9991561756      -13.1203488963
 H         8.5665485097       -3.5971569557      -11.9816663306
 H         8.8774372011       -3.4817479390      -13.6773427508
 H         4.6516800487       -4.6672639491      -19.7885407630
 H         3.8522315133       -5.1306633793      -18.2853871549
 H         4.3010972347       -6.3532470710      -19.4189542660
 H         7.8144064501       -6.6225046073      -18.8912378008
 H         6.6341852982       -6.2971413701      -20.2091982706
 H         6.1793638412       -7.4425079503      -19.0687619655
 H        12.6250647712       -1.0528173115      -19.8719653554
 H        11.9979419343       -2.4773905810      -19.0806771946
 H        11.6454770808       -0.6903759983      -18.5292260364
 H        10.8595023783        0.4724246905      -21.3484906662
 H         9.4610417657        0.4775910729      -20.3587971505
 H         9.5524472091       -0.3132315701      -22.0100160124
 Na       -9.5566243287       -1.2509175110       -6.2505246380
 Na        7.6141644659       -1.8799506540      -16.5008941726
