232

 C        11.0111328888       -2.2447243440      -22.6352078436
 C        10.6490839034       -2.5601521267      -21.1977233764
 O        10.4859382354       -3.6801323293      -20.7603865302
 C        10.3988490430       -1.3773548216      -20.1690167315
 C         9.1687574032       -1.7581161511      -19.2511786263
 O         9.3407708274       -1.5060891256      -18.0877553287
 C         7.8095155712       -2.3051452499      -19.7819714614
 C         7.7362810866       -3.7876309502      -19.4666349851
 C         6.5141708979       -4.0539976617      -18.5494104867
 O         6.1197471977       -3.1390036993      -17.8441796143
 C         5.8818719205       -5.4434517522      -18.5877621660
 C         5.5974895850       -6.1196217425      -17.0433986936
 O         6.1756060514       -7.1471230141      -16.8033707290
 C         4.6371937999       -5.4705555644      -15.9960342553
 C         5.3761850674       -5.3530723566      -14.6079436688
 C         6.4159776546       -4.2219253601      -14.5308896652
 O         7.1103729127       -4.0400579396      -15.5351127786
 C         6.7824436500       -3.3911639081      -13.1405475229
 C         6.8845473245       -1.8400779439      -13.3672236978
 O         6.4534759632       -1.4050025900      -14.4604150813
 C         7.4326458557       -0.8329003301      -12.3812256808
 C         6.5684514861        0.4226151558      -12.2163619815
 C         5.1377142261        0.2023235360      -11.6325837479
 O         4.6693190123       -0.8603917523      -11.3199456107
 C         4.0846515983        1.5107276257      -11.6312136795
 C         3.4149906476        1.5564911447      -10.2044298100
 O         4.0591007021        2.0020485893       -9.3371784715
 C         2.1354018502        0.8614605054      -10.0171633477
 C         1.8711565428        0.4780333812       -8.5693258853
 C         1.6059187676       -1.0227814136       -8.3509993191
 O         1.6175324919       -1.7619421446       -9.3347035998
 C         1.3315983385       -1.5048366343       -6.8923591280
 C        -0.0278596700       -0.8179474749       -6.4044137318
 O         0.0605286795        0.3421197864       -6.0630571241
 C        -1.3134217494       -1.6715185951       -6.2855289103
 C        -2.3728872965       -1.0798816364       -5.4597228298
 C        -3.8170280108       -1.3311164983       -5.9670061437
 O        -4.0083429744       -2.1368029675       -6.8655391616
 C        -4.9480941954       -0.6971715684       -5.1846586819
 C        -6.1694893485       -0.5272341243       -6.2089742502
 O        -7.3354953618       -0.5576294989       -5.8375910306
 C        -5.8661833745        0.1304119033       -7.5892834982
 C        -7.1476840206        0.2036850927       -8.4591159535
 C        -6.7996377280        0.9021924769       -9.7246224705
 O        -6.2225985536        1.9945422380       -9.6751531285
 C        -7.0900586662        0.1965344484      -11.0808713575
 C        -8.4822727285       -0.5285609756      -10.9732083093
 O        -9.1683204237       -0.5665456109      -10.0206245103
 C        -8.9730326318       -1.3634309851      -12.3032735480
 C       -10.3865659872       -1.8856439673      -12.1199671899
 C       -10.4518739816       -3.3765084723      -12.4018556382
 O        -9.5859719396       -3.9571609771      -12.9718450746
 C       -11.7665851156       -4.1273849814      -11.8608820134
 C       -11.3237238693       -4.3439995042      -10.2837069093
 O       -10.4147304819       -5.0721775443       -9.9288270843
 C       -11.8858708508       -3.4295538273       -9.2308153654
 C       -11.5928540008       -4.0344178278       -7.8402112156
 C       -10.0918834996       -3.8558372038       -7.4852052272
 O        -9.4482545777       -2.9413117104       -7.9651266431
 C        -9.4442183382       -4.6963142244       -6.3849390931
 C       -10.2527402488       -4.2818931536       -5.0741278413
 O       -10.3228398307       -3.0628987881       -5.0210462844
 C       -10.5273139641       -5.2996001432       -4.0245642245
 C       -11.3549390583       -4.7476385714       -2.7842095766
 C       -12.6777237095       -4.2705339023       -3.3805315441
 O       -13.0378618265       -4.5610257427       -4.4957252878
 C       -13.6392414816       -3.4954062125       -2.4118187949
 C       -13.3029597694       -1.9693112002       -2.7341620777
 O       -12.7895450254       -1.2313456631       -1.9082811270
 C       -13.8565824545       -1.3528843274       -4.0008618050
 C       -13.4889953307        0.1786388154       -4.2318681438
 C       -12.2213962508        0.4027057922       -5.0746674824
 O       -11.7951369796       -0.6565858435       -5.6134782543
 C       -11.4093854464        1.7229025975       -4.9899327839
 C       -10.4289213740        1.8254330668       -6.2355198196
 O        -9.2526102145        1.5551863414       -6.0649604506
 C       -11.0431133866        1.9715170214       -7.6313934021
 C       -10.3285434430        2.8945295301       -8.5701996351
 C       -10.6244680924        4.3629922162       -8.2785187390
 O       -11.4736041915        4.7325596779       -7.4438673284
 C        -9.9251315993        5.4598935471       -9.1331830672
 C        -8.9227333197        6.1889973071       -8.1580725807
 O        -7.7091367473        6.0844605835       -8.1842958082
 C        -9.6289808400        7.2410885728       -7.2732054324
 C        -9.1468230455        4.9848649799      -10.4244877533
 C       -11.1289258615        6.4431604708       -9.6050680406
 C       -12.4981862817        2.8755291600       -4.9034087446
 C       -10.6223245433        1.5793384283       -3.6560265914
 C       -15.1229620799       -3.9553994220       -2.6738106043
 C       -13.4786438806       -3.6229904660       -0.8599054044
 C        -9.3786048897       -6.2301672146       -6.7708890749
 C        -7.9441300648       -4.3411537538       -6.0299714824
 C       -13.0633516940       -3.3242482801      -11.9834402910
 C       -11.8392575610       -5.4557540827      -12.5113860564
 C        -7.1729532871        1.4242824557      -12.1670028600
 C        -5.8712981714       -0.7454315080      -11.4803646616
 C        -5.2679152090       -1.7019744501       -3.9845745118
 C        -4.6227214510        0.7629762607       -4.6818650904
 C         1.4042520480       -3.0706153460       -6.9865606597
 C         2.4945227762       -1.0846772400       -5.9232281501
 C         4.7889343624        2.8665292213      -11.7682432199
 C         3.2546744437        1.2794443681      -12.8938249387
 C         5.7396535034       -3.7710316941      -12.0030725995
 C         8.2582920298       -3.7614996961      -12.7905370713
 C         4.4424826870       -5.3418838130      -19.2795801124
 C         6.8961540311       -6.4673334548      -19.1554179881
 C        11.7208680176       -1.2979287893      -19.3656906275
 C        10.1424929154       -0.0302471911      -20.8725152348
 H        11.9703125245       -1.6371036068      -22.5490695044
 H        10.2893437645       -1.6263428898      -23.2623933109
 H        11.0841276169       -3.1927681481      -23.1690413946
 H         7.6981214263       -2.0162742927      -20.8245044432
 H         6.9603413717       -1.7679715432      -19.3044281543
 H         8.7416475522       -4.0190431403      -18.9963624912
 H         7.5253365485       -4.3622150630      -20.3318086606
 H         3.7562191503       -6.1180065917      -15.7402151576
 H         4.3093084124       -4.4825748602      -16.2309540731
 H         6.0229536388       -6.2944099818      -14.4176765571
 H         4.5715144029       -5.4298963850      -13.8735116568
 H         8.4267905218       -0.6095949785      -12.8918152369
 H         7.6469062397       -1.2690899254      -11.3943848196
 H         6.3755493887        0.7034395736      -13.2365695896
 H         6.9965763241        1.2147682801      -11.6119026523
 H         2.0764025328        0.0102207988      -10.7001259334
 H         1.3579266582        1.5958680811      -10.4959053460
 H         1.1115101307        1.1053624776       -8.1192967119
 H         2.7162627106        0.8052866493       -7.9175169480
 H        -1.0332541503       -2.6903736651       -5.9602365645
 H        -1.7126435512       -1.9032879521       -7.2385213260
 H        -2.1019068528       -0.0489948296       -5.2792039491
 H        -2.3374754173       -1.6481075607       -4.5526512581
 H        -4.9717921516       -0.3788865052       -8.1048614356
 H        -5.5555604131        1.1823743687       -7.4083751704
 H        -7.8832039767        0.8845238139       -8.0027661366
 H        -7.6522400352       -0.8304522431       -8.6120780204
 H        -8.2586854038       -2.2459577445      -12.4051371132
 H        -8.9673395549       -0.7140996374      -13.1527912914
 H       -11.2170779304       -1.4472995461      -12.6177624902
 H       -10.6071939534       -1.5809050425      -11.0557279493
 H       -12.9250271019       -3.2817566153       -9.3471190783
 H       -11.2643973302       -2.5037340803       -9.3423170468
 H       -11.9076596171       -5.0521093791       -7.7511998822
 H       -12.0411485271       -3.4552991569       -7.0622012523
 H        -9.5948510467       -5.8490597400       -3.7373555737
 H       -11.1277256416       -6.0631497266       -4.5543404710
 H       -10.7886914214       -4.0038269829       -2.1531951054
 H       -11.4326736492       -5.5849777938       -2.0858377801
 H       -14.9447631888       -1.5928848922       -4.0258076644
 H       -13.3408907497       -1.9543851528       -4.7800887621
 H       -13.5659611445        0.6772549971       -3.3071358366
 H       -14.3177246593        0.4560238627       -4.8613981785
 H       -12.0125865491        2.5176755375       -7.4658397477
 H       -11.2151020165        0.9913407432       -8.1250787814
 H       -10.3979666921        2.6487235649       -9.6066444800
 H        -9.1605239712        2.7115404441       -8.4700660047
 H       -10.3590000540        6.6920402731       -6.6656119284
 H       -10.1273234408        8.0629530558       -7.8000782664
 H        -9.0485703963        7.6841467404       -6.4509132206
 H        -9.6074486472        4.1371576618      -10.9479322476
 H        -8.1534076469        4.6262041809      -10.1082318658
 H        -8.8939049459        5.8138884177      -11.1338936207
 H       -11.8197207334        5.9232623580      -10.2907565997
 H       -10.7105830400        7.2578436517      -10.2651690048
 H       -11.6251674494        6.8021250830       -8.6753606036
 H       -12.0039899196        3.8125365182       -5.0143250190
 H       -12.9709687039        2.7735492036       -3.9146511674
 H       -13.2695757967        2.5803056927       -5.6412250168
 H       -10.6431443698        2.4646455338       -3.0069674168
 H        -9.5610739910        1.4066285524       -3.9243065867
 H       -10.9138010138        0.6980549958       -3.1921006289
 H       -15.8868139389       -3.3272029647       -2.3022213825
 H       -15.2473525328       -4.9246932216       -2.2803533871
 H       -15.1429365361       -3.9861033862       -3.7421447254
 H       -13.5072394714       -4.7082172212       -0.6264788547
 H       -14.2269073959       -3.1521261934       -0.3141765290
 H       -12.5117775712       -3.2285282950       -0.5520500068
 H        -9.9528272505       -6.3949416430       -7.6583008461
 H        -9.8010422875       -6.8456661165       -5.9156822082
 H        -8.3783852606       -6.4805699698       -6.8873236838
 H        -7.4853362876       -4.9862092750       -5.4013486711
 H        -7.8527178277       -3.2906314096       -5.7310169810
 H        -7.4191854486       -4.6085350519       -6.9578883577
 H       -13.0745958315       -2.3285936533      -11.5030429160
 H       -13.8464122506       -3.7791552046      -11.4106129111
 H       -13.2741916411       -3.1633720417      -13.0750335032
 H       -11.0062335503       -6.0929724100      -12.1261018900
 H       -11.7914364522       -5.3916003924      -13.6343316409
 H       -12.6756719739       -6.0442916941      -12.1048431922
 H        -7.1713520632        1.0641595171      -13.1983920443
 H        -6.3661115472        2.1073898389      -11.9529298291
 H        -8.0924706327        1.9423484697      -11.8770000384
 H        -4.9228353718       -0.0616703300      -11.4113165005
 H        -5.9230695115       -1.1610108497      -12.4605657828
 H        -5.7323451317       -1.5688003869      -10.8743322014
 H        -4.4980383091       -1.5085371201       -3.2139728735
 H        -5.2534407492       -2.7420275886       -4.2477151047
 H        -6.1230809358       -1.5052651940       -3.3223362021
 H        -3.5750111927        0.8841577452       -4.3948204701
 H        -5.2701195524        1.0484933545       -3.8370907986
 H        -4.8604402848        1.4365129290       -5.5009647217
 H         1.1206069277       -3.7903293047       -6.1399336546
 H         2.4376706779       -3.3646491493       -7.1027262975
 H         0.8886481548       -3.4910259195       -7.9331072017
 H         2.2284222056       -0.5422015859       -4.9988380966
 H         3.2539190050       -0.5083867389       -6.3040725109
 H         3.0586840418       -1.9188889486       -5.6353428425
 H         5.6048050435        2.9672892807      -11.0086254833
 H         4.1171270372        3.7023708073      -11.8237552588
 H         5.2594382316        2.8746719789      -12.7308573596
 H         3.0028784474        0.2130933433      -12.8324817928
 H         3.8614335523        1.5107489822      -13.7953528594
 H         2.3794337903        1.8974931883      -12.9773696619
 H         6.0017352360       -3.3669950537      -10.9699431236
 H         5.7399859536       -4.8024578905      -11.7241791557
 H         4.8307741098       -3.3361317611      -12.1175496628
 H         8.2800896422       -4.8977751914      -12.8027411312
 H         8.6383801583       -3.2527281198      -11.9045867320
 H         8.8758928667       -3.4175467388      -13.5626044085
 H         4.5158560451       -4.7144334757      -20.1796443594
 H         3.8396987548       -4.8593344665      -18.5747889143
 H         4.0268089902       -6.2723297716      -19.4740024212
 H         7.6859322280       -6.5375071833      -18.4455800658
 H         7.2493069411       -6.2300712413      -20.2467110663
 H         6.3405662325       -7.3952820375      -19.1991265084
 H        12.5557762348       -1.0689232603      -19.9504901618
 H        11.9331143023       -2.2832976607      -18.9556241240
 H        11.6295076296       -0.4972631842      -18.6741814436
 H        10.8075382303        0.4809075116      -21.5192586000
 H         9.8487801501        0.7142404026      -20.1012113249
 H         9.3397397167       -0.1691052847      -21.6026642054
 Na       -9.6436525684       -1.1585726842       -6.3553017849
 Na        7.5464982701       -1.9011876533      -16.5969800652
