232

 C       -22.7483595966       -7.0946151481       -3.3940369793
 C       -21.5324854486       -6.2097373828       -3.3927448274
 O       -20.4531743768       -6.6909313824       -3.0716280558
 C       -21.6933938251       -4.7441125018       -3.7620859987
 C       -20.2957960723       -3.8767811102       -3.3744917002
 O       -19.8367994765       -3.9526765154       -2.2627194155
 C       -19.6786203821       -3.0262859930       -4.5181266594
 C       -18.2870452508       -2.3494157172       -4.3000734792
 C       -17.3651567163       -3.2599040937       -3.4927733020
 O       -17.4109825379       -4.4696594108       -3.7487944228
 C       -16.2735020225       -2.7393898594       -2.4016313423
 C       -16.1511328790       -4.0663165821       -1.6118562913
 O       -17.1409630090       -4.4590921790       -1.0028317071
 C       -14.8925733824       -4.9362365996       -1.5065983436
 C       -15.2454950290       -6.3702986460       -0.9946689115
 C       -15.4166472646       -7.4900294171       -2.0207415366
 O       -16.4880356168       -7.5960097973       -2.5959186524
 C       -14.2155967726       -8.4186495423       -2.3910393988
 C       -12.8460672964       -7.5653736625       -2.5148332942
 O       -12.9122945127       -6.6328197519       -3.2708295348
 C       -11.6126198401       -7.9315470166       -1.7980706757
 C       -10.5537456012       -8.6517520292       -2.8261939097
 C        -9.5552390047       -9.5219065730       -2.1204168049
 O        -9.7786147564       -9.9133722887       -0.9974412521
 C        -8.2290473939      -10.0285430718       -2.9174063761
 C        -7.5576343061       -8.7607496006       -3.4179830991
 O        -7.5986978531       -7.7610742341       -2.7362672872
 C        -6.5339360154       -8.7716657352       -4.6821395252
 C        -6.0983377498       -7.3386667408       -5.0254222973
 C        -6.5505260521       -6.8976322131       -6.4635563617
 O        -7.4389063552       -7.4269848008       -7.0816679668
 C        -5.9076997744       -5.5022556183       -7.0469341909
 C        -4.8823078792       -6.0515877429       -8.0291022992
 O        -3.7778313665       -6.3158513907       -7.5679614512
 C        -5.1183239589       -6.0775607024       -9.5033883106
 C        -4.1669447368       -5.1395080897      -10.1589965150
 C        -4.1391785156       -5.1023097361      -11.7065984948
 O        -3.1141607848       -5.6351616240      -12.1144733048
 C        -5.0684927442       -4.3174121313      -12.5415656269
 C        -4.6195800798       -2.7915400089      -12.3190520069
 O        -5.3124527771       -1.9891987598      -11.7314221921
 C        -3.2287192940       -2.5716939177      -12.9623254476
 C        -2.6820617296       -1.1724262202      -12.8885890183
 C        -1.1000658109       -1.1349382542      -12.8439179989
 O        -0.4954149826       -0.2566020608      -13.4166866921
 C        -0.2860483461       -2.2518036472      -12.0989816463
 C         1.2116440107       -1.7553743444      -12.1157347231
 O         2.1385082317       -2.4935776392      -12.3786954898
 C         1.5814385571       -0.4456191473      -11.4028928343
 C         3.0868182987       -0.1736927671      -11.4607878398
 C         3.6131668536        0.9368529819      -10.5379478208
 O         2.7625144836        1.4428788054       -9.7830069553
 C         5.0933319307        1.3495704980      -10.6389959520
 C         5.3977428513        2.6794243797      -11.5170237014
 O         5.8402575865        2.5059058796      -12.6390941283
 C         4.8223662446        4.0728649365      -11.0529533090
 C         5.8268404885        5.1976306397      -11.0718960915
 C         6.0629993549        5.8101413222      -12.4062532397
 O         5.4214792106        5.4481056779      -13.3583353445
 C         6.8417995000        7.1571002970      -12.6419512324
 C         7.4773519105        7.3192104382      -14.2143960854
 O         7.3054559296        8.2593657291      -14.9123031695
 C         8.3860528856        6.1935521158      -14.6578333446
 C         8.5889426411        6.3871871763      -16.1616423433
 C         7.2146312132        6.2560450503      -16.8311133832
 O         6.3277621071        5.5695085408      -16.3469740023
 C         7.0382690995        6.9082771751      -18.2147492344
 C         8.3433004779        6.4819827733      -19.0787435571
 O         9.3993333126        6.4468942560      -18.5155361405
 C         8.1966285055        5.9844377528      -20.5655152603
 C         9.1438041795        4.8510895438      -20.7342416959
 C         8.7683434450        3.5104713553      -20.1003493474
 O         7.6858519365        3.3702381127      -19.5663571896
 C         9.7619299374        2.2886389025      -20.3024804103
 C         9.1341959717        1.0500475300      -19.5619501496
 O         8.3386682801        0.2986911297      -20.1117945386
 C         9.6054791581        0.8597463136      -18.0970540599
 C         8.6465561457        0.1968546622      -17.1342519493
 C         7.4166611812        1.0419404675      -16.6555916972
 O         7.7025778808        2.0639826826      -16.0053953136
 C         5.8658914211        0.5374357013      -17.0759641662
 C         5.1097253885        1.8460101627      -17.4252174117
 O         5.1676809401        2.7680441546      -16.6165039379
 C         4.4993930077        2.0480153819      -18.8352744705
 C         5.8857995978       -0.4837055249      -18.2326106091
 C         5.2697329631       -0.1501803708      -15.8387676588
 C        10.1330514152        1.9706363605      -21.6559964678
 C        11.1098989221        2.7677627153      -19.6551280110
 C         5.7650084541        6.6540622274      -18.9305184251
 C         7.2012286602        8.4836551560      -18.0426371214
 C         5.6761571610        8.2164889981      -12.4991322783
 C         8.0163930591        7.3032364329      -11.6280217680
 C         5.5858880116        1.6387094185       -9.1459709477
 C         5.9010863508        0.2230398421      -11.3916970006
 C        -0.6358665511       -2.7500915792      -10.7487772079
 C        -0.2309555008       -3.4624057949      -13.1103968406
 C        -4.9828158540       -4.8444886825      -14.0891041396
 C        -6.6313382060       -4.4620114291      -12.0709077545
 C        -7.1659310785       -4.7291284086       -7.6469757233
 C        -5.2140026921       -4.6525488393       -6.0062191994
 C        -7.3563714808      -10.8114781669       -1.8926722642
 C        -8.6324677276      -10.9710994607       -4.1945653251
 C       -14.1885984084       -9.5223941106       -1.2294377534
 C       -14.3540288143       -9.0719587563       -3.7492067291
 C       -14.9765406040       -2.2278393436       -3.0766990712
 C       -16.9533639142       -1.7020461677       -1.4312028707
 C       -22.2397132766       -4.4012494287       -5.2434733148
 C       -22.7972059290       -4.1141739051       -2.8160217869
 H       -22.6687793775       -7.7322647608       -2.4991246664
 H       -22.5884450736       -7.6911510031       -4.3316302793
 H       -23.7564742908       -6.5792703606       -3.3223938710
 H       -20.4109004408       -2.2582437574       -4.8668645507
 H       -19.6157521522       -3.5297494697       -5.4941364704
 H       -18.3911150132       -1.3137288830       -3.8358839179
 H       -17.7965177532       -2.2182553163       -5.2783381017
 H       -14.2629547637       -4.3876956006       -0.8531260044
 H       -14.3478338422       -4.8348541475       -2.4814871175
 H       -16.1611865756       -6.2625190608       -0.5405489365
 H       -14.5263284238       -6.5770346111       -0.1417266218
 H       -11.7569094086       -8.5612195283       -0.8862748578
 H       -11.1383479671       -7.0029690467       -1.4566714780
 H        -9.9487948247       -8.0114615046       -3.5086463299
 H       -11.1863158369       -9.1972418612       -3.5448700871
 H        -6.9156262260       -9.1542462218       -5.6135968511
 H        -5.7756705966       -9.4121797727       -4.3683816159
 H        -5.0686187322       -7.0415155033       -4.7914326626
 H        -6.7060278395       -6.7344786166       -4.3767510861
 H        -6.1724774078       -6.0077872666       -9.7448505069
 H        -4.8914901154       -7.0793407463       -9.9515144907
 H        -3.2188255777       -5.4842592624       -9.7829286480
 H        -4.3027795995       -4.2056770802       -9.7751727962
 H        -3.2668643309       -2.9034737435      -14.0279680223
 H        -2.6288862459       -3.3440556510      -12.4883284338
 H        -2.7945680963       -0.7128429679      -11.9561777633
 H        -2.8873609869       -0.4513386239      -13.6914172019
 H         1.2993777439       -0.5327893753      -10.3689509114
 H         0.8959485906        0.3115092459      -11.7754791989
 H         3.4329166335       -0.0630187520      -12.5038547595
 H         3.4758344683       -1.2356535007      -11.2478383069
 H         4.4234619907        4.0035470129      -10.0312424064
 H         4.1306342178        4.2974783687      -11.9565334203
 H         6.7403331419        4.8779027580      -10.5268266522
 H         5.4286496527        6.0598632480      -10.5394908165
 H         7.8370027823        5.2829045818      -14.3822075284
 H         9.3310919778        6.1994680875      -14.0442049681
 H         9.3221382145        5.6263766377      -16.6755797197
 H         9.0003705079        7.3992766778      -16.5167473990
 H         8.4987121590        6.7333739541      -21.2676492175
 H         7.2127651522        5.5736781219      -20.7355884407
 H        10.1698119289        5.0571610568      -20.4995320207
 H         9.0561106931        4.5840493254      -21.8310079642
 H         9.8514011168        1.7692681029      -17.5732165693
 H        10.3911037353        0.0441594719      -18.2639424933
 H         9.1898384588       -0.2607993383      -16.2772550332
 H         8.1846075967       -0.6701648052      -17.7219216182
 H         5.1030531964        2.2866223327      -19.6104492094
 H         3.7600568898        2.8645101293      -18.7353274068
 H         3.9981384347        1.1262137996      -19.0662124645
 H         4.8725062885       -0.8294169985      -18.4253314514
 H         6.4230176116       -1.4362873887      -17.8740896603
 H         6.2533052596       -0.1232386315      -19.2466540823
 H         4.4052589859       -0.7942064619      -15.9558918646
 H         5.1855193959        0.6870584208      -15.1580427869
 H         6.2110934283       -0.6866980729      -15.4178975873
 H        10.9850704429        1.3314511398      -21.6443748481
 H        10.4335509905        2.8479841109      -22.2373351964
 H         9.3832770814        1.5269608701      -22.2252014044
 H        11.6684959985        1.8931164541      -19.2651843057
 H        10.8816787646        3.5006494004      -18.8190607077
 H        11.8311900409        3.3283328003      -20.2893008247
 H         4.9555566492        7.1314670327      -18.3731907035
 H         5.4521971871        5.6129174909      -19.1460671221
 H         5.7958140710        7.1584757690      -19.9278393661
 H         8.1715904804        8.7064113489      -17.5483387291
 H         6.3953445042        9.0053525128      -17.4321358960
 H         7.2219038487        9.0173374163      -19.0108387293
 H         6.0922790478        9.2196317606      -12.4327908322
 H         5.1617809175        7.9906901073      -11.6155119656
 H         5.1617356617        8.2490995604      -13.4400154010
 H         7.6841521653        7.2470644549      -10.6286371804
 H         8.4638773876        8.3332907196      -11.6671184796
 H         8.8771119854        6.6854002708      -11.7794986210
 H         6.6135929480        1.8645083806       -9.1285422194
 H         5.3887031304        0.7989486027       -8.5297269776
 H         5.1723460425        2.6170887348       -8.7206802422
 H         6.1808357186       -0.5893330504      -10.7713429138
 H         6.8025469151        0.4691129327      -11.9600767161
 H         5.2337261840       -0.2097242768      -12.2191092439
 H        -0.7886594705       -1.9329083182      -10.1105142324
 H         0.2385225247       -3.3527368769      -10.4223530807
 H        -1.5841348654       -3.2722568334      -10.7273089590
 H        -0.9606386347       -4.2658600637      -12.8444520281
 H         0.8214823776       -3.8576327779      -13.0628262764
 H        -0.3147157030       -3.1209335846      -14.1844824763
 H        -5.8799255192       -4.7346239994      -14.6601185357
 H        -4.7153076773       -5.8948911739      -14.0693432119
 H        -4.1650722214       -4.3873981121      -14.5561226522
 H        -7.3207142481       -3.6247280980      -12.3577941110
 H        -6.6509218111       -4.4614546335      -11.0262383217
 H        -6.9400534299       -5.3842504128      -12.4487496983
 H        -7.5858993691       -5.1978995735       -8.4374896839
 H        -6.8787041270       -3.7415538647       -8.0226571655
 H        -7.8763243305       -4.7464919129       -6.8517031318
 H        -5.9373631477       -4.3918290363       -5.1969321076
 H        -4.8354212857       -3.7052536066       -6.3142870162
 H        -4.3929713733       -5.1202116684       -5.4713041136
 H        -7.9767969486      -11.6348753048       -1.5332258151
 H        -7.0986176281      -10.2233862195       -1.0069775063
 H        -6.5716232958      -11.1369026434       -2.5810955163
 H        -9.1067378728      -11.9127426819       -3.8555342046
 H        -7.7777006399      -11.1388754892       -4.7490359916
 H        -9.4217988204      -10.4482147899       -4.7525756207
 H       -14.4207539195       -8.9935360245       -0.3001053144
 H       -13.1612086506       -9.9595959455       -1.2506567800
 H       -14.9273795178      -10.2899544569       -1.5036670654
 H       -14.0785807430       -8.3216874691       -4.5316783291
 H       -15.4424495183       -9.3754817581       -3.9400700105
 H       -13.6629853808       -9.9997038335       -3.8886271224
 H       -14.3725581599       -3.0588410591       -3.4066770027
 H       -14.3063428823       -1.5280640440       -2.5314751315
 H       -15.1739180823       -1.7134677295       -4.0693119548
 H       -17.6657942928       -2.2965986702       -0.9339628493
 H       -17.5541527467       -0.9200666700       -2.0376276348
 H       -16.2596925848       -1.3244406512       -0.5945709316
 H       -21.4848811088       -4.6708481022       -6.0056981212
 H       -22.4379640194       -3.3010131947       -5.4293004777
 H       -23.1928074206       -4.9397602752       -5.4134599830
 H       -22.7719207604       -3.0040115519       -2.9495730722
 H       -22.6487888461       -4.3605006693       -1.7538555187
 H       -23.7764726246       -4.3648638775       -3.1503722768
 Na      -18.3586691066       -6.0807409105       -2.1664659536
 Na        6.0232849214        3.8167484411      -14.8887121707
