232

 C        11.0236938525       -1.9905152337      -22.4963433879
 C        10.3268923481       -2.4284434937      -21.0895865546
 O        10.0106722312       -3.5179442108      -20.7801412373
 C        10.0698497546       -1.1504907861      -20.0815655944
 C         8.8755783721       -1.6010278178      -19.0966038944
 O         8.9673103969       -1.4324716484      -17.8600463534
 C         7.5476712316       -2.0885486358      -19.7870148390
 C         7.4946935956       -3.6060914740      -19.7674464182
 C         6.3279277845       -4.0975092446      -18.8885778127
 O         5.8119266426       -3.2618866669      -18.1683655646
 C         5.8013690408       -5.5045832829      -18.7399238287
 C         5.8188684715       -6.0372820442      -17.2111608472
 O         6.4267081905       -7.0328064031      -16.8614939016
 C         4.9816413728       -5.1907890648      -16.2822013327
 C         5.5559854603       -5.3006704988      -14.8892993546
 C         6.5819554943       -4.2031314622      -14.6015648448
 O         7.4375850117       -3.8512418984      -15.3465775055
 C         6.7210867337       -3.4609490407      -13.1373755539
 C         6.8212638682       -1.8094365804      -13.3594190294
 O         6.5402591302       -1.2899941053      -14.4212974165
 C         7.2379161166       -0.8920398144      -12.2198913539
 C         6.4350629955        0.4854310795      -12.2497307397
 C         4.9949719323        0.2409350928      -11.9216492005
 O         4.5138271042       -0.8978657651      -11.6796940471
 C         4.0644492395        1.6092953202      -11.7783953189
 C         3.5974033535        1.5631022385      -10.2113285787
 O         4.3987586145        2.0472486492       -9.4008367165
 C         2.3850007489        0.8130549151       -9.9450528220
 C         2.1278070063        0.4652964056       -8.5046792161
 C         1.6456753173       -1.0332396483       -8.2269946152
 O         1.4375391154       -1.6882804051       -9.1993835088
 C         1.4510639378       -1.6595799398       -6.6993388365
 C         0.1307005169       -1.0844970711       -6.2337422760
 O        -0.0015572146        0.1310762577       -6.3385108463
 C        -1.0869501717       -1.9916572334       -5.7790444378
 C        -2.2364551571       -1.1919235506       -5.0286902528
 C        -3.6445446957       -1.5035752164       -5.5813782621
 O        -3.8470959563       -2.1667138681       -6.5640520757
 C        -4.9155140114       -0.6890370357       -4.9523057286
 C        -5.9915264925       -0.4657885414       -6.0333789959
 O        -7.0843802327       -0.9169213671       -5.6791515847
 C        -5.7803050951        0.3107865858       -7.4051353134
 C        -6.9910352728       -0.0650696343       -8.4166915011
 C        -6.8299951657        0.8979531448       -9.6269232955
 O        -6.4761419039        2.0690853013       -9.5886785186
 C        -7.2156390780        0.2096861934      -11.0801446934
 C        -8.6314312285       -0.3385767467      -11.1233093856
 O        -9.4728296278        0.0672603890      -10.3935363513
 C        -8.9360641332       -1.2888204616      -12.2758596380
 C       -10.3919515040       -1.8504104682      -12.2976763040
 C       -10.4497898546       -3.4156583864      -12.4401397547
 O        -9.6814863132       -3.9138194220      -13.2194236385
 C       -11.5807687274       -4.3079165164      -11.7968710247
 C       -11.2449194222       -4.6940969272      -10.3509556679
 O       -10.4906155006       -5.6069136511      -10.1407819086
 C       -11.9330962802       -3.9986095431       -9.1596990865
 C       -11.3933615197       -4.4803318956       -7.7921180577
 C       -10.0140675746       -3.9294841737       -7.4690397364
 O        -9.6307130453       -2.8549576937       -7.9435380227
 C        -9.1952761343       -4.6343839905       -6.3839088875
 C        -9.8264753057       -3.9211146259       -5.0290582168
 O        -9.7903435214       -2.7228012582       -4.7461882863
 C       -10.3740517633       -4.9372160630       -4.0716692886
 C       -11.4065651476       -4.5170298968       -3.0079669267
 C       -12.8945043597       -4.2622748550       -3.5270033223
 O       -13.3278355666       -4.6195463285       -4.5890319405
 C       -13.8990975425       -3.4613043340       -2.4845203049
 C       -13.4059143782       -1.8863277659       -2.5844281119
 O       -12.6693815526       -1.5249529013       -1.6934978153
 C       -13.8188216010       -1.0740177405       -3.7617909263
 C       -13.2952554863        0.3986068291       -3.9660153548
 C       -12.0364703533        0.3495453960       -4.8553986291
 O       -11.5632340290       -0.6696980229       -5.3640393488
 C       -11.1950206415        1.6722646324       -4.9143343458
 C       -10.4876829179        1.6121685833       -6.3667832407
 O        -9.3333197724        1.2439210680       -6.3575661429
 C       -11.2679101713        1.9251295195       -7.6262256436
 C       -10.4564426543        2.8262407774       -8.5619187895
 C       -10.5261709501        4.3535114848       -8.2235962634
 O       -11.0926236701        4.6723556869       -7.1706380050
 C       -10.0516119506        5.4120329104       -9.3255307178
 C        -8.9718215294        6.2636340155       -8.4680916224
 O        -7.8332345096        6.1665173303       -8.8051597178
 C        -9.5603041173        7.1465060893       -7.3505769194
 C        -9.2506195405        4.7078697648      -10.4558572240
 C       -11.1896661396        6.2453624355       -9.7773967150
 C       -12.2100388812        2.8302335407       -4.8053405639
 C       -10.0505737236        1.7072024215       -3.7776518520
 C       -15.3632352227       -3.6061558313       -2.8771411577
 C       -13.7394970250       -3.9611430329       -1.0496400974
 C        -9.2692662652       -6.1453413516       -6.7008334734
 C        -7.6843068505       -4.2771883112       -6.2493082829
 C       -12.8421099561       -3.4559680274      -11.8117992399
 C       -11.8751081893       -5.7286840840      -12.5497846425
 C        -7.0166035412        1.3469187293      -12.0973774526
 C        -6.1564762538       -0.8641645726      -11.3852654217
 C        -5.2465359049       -1.3698652077       -3.6890052406
 C        -4.4099827525        0.7452714466       -4.5890106224
 C         1.6509345767       -3.1644021978       -6.9003077178
 C         2.5417114134       -1.1179060813       -5.7125377562
 C         4.7700536254        2.8859119519      -12.2513123114
 C         2.9102491782        1.3550371009      -12.7501984750
 C         5.5165678733       -3.7391286235      -12.2353965760
 C         8.1358534264       -3.9427343511      -12.7458895807
 C         4.2531951493       -5.6513483698      -18.9905274904
 C         6.7283334915       -6.4264467244      -19.5123395559
 C        11.3603158319       -1.0593792456      -19.1893913783
 C         9.7136875711        0.2457709141      -20.6916343152
 H        10.4250277329       -1.1565695990      -23.0076992261
 H        11.1878142769       -2.7670274670      -23.2611744348
 H        11.9796815231       -1.3928145701      -22.2924420018
 H         7.3408742563       -1.6927861605      -20.7974035328
 H         6.7639926703       -1.7309606184      -19.0793140836
 H         8.3552669855       -4.0621285812      -19.1794335682
 H         7.5799538630       -4.0313634208      -20.7051857986
 H         3.8857967197       -5.4065967687      -16.3188585891
 H         5.1290074492       -4.1749794929      -16.5042905136
 H         5.9605696076       -6.3170283327      -14.8947030436
 H         4.7204690930       -5.2844166121      -14.0091904962
 H         8.2861146603       -0.5472905216      -12.4833827951
 H         7.3245288053       -1.3889702451      -11.2454459158
 H         6.4460583794        0.9884374740      -13.2166199511
 H         6.9709298135        1.1799896833      -11.5623415304
 H         2.2206330496       -0.0575290049      -10.5559167732
 H         1.5639527623        1.5780126337      -10.2043021779
 H         1.3013947747        1.0923360993       -8.1925370858
 H         2.8656741335        0.7239217205       -7.7335603968
 H        -0.8246166644       -2.8940640836       -5.2011144156
 H        -1.4411648760       -2.3204127177       -6.7356919469
 H        -1.9431135403       -0.1516013821       -5.0441085492
 H        -2.1915799467       -1.5246301549       -4.0337601593
 H        -4.8810547726       -0.1802125198       -7.7982714087
 H        -5.7065218832        1.3383016243       -7.1933315671
 H        -7.9259203909        0.1532424566       -7.8875395207
 H        -6.9599310041       -1.1643003278       -8.4831020794
 H        -8.2849321605       -2.2236336411      -12.3245135680
 H        -8.6816099010       -0.8149560810      -13.2127444951
 H       -10.9161268386       -1.4441891212      -13.1338678294
 H       -11.1284722251       -1.5855342821      -11.4932443155
 H       -12.9816421840       -4.1853820067       -9.1728032381
 H       -11.7964548617       -2.8757267379       -9.2503692212
 H       -11.3096990541       -5.5672013814       -7.8048614095
 H       -12.0897424599       -4.1990065763       -6.9705973238
 H        -9.3916792871       -5.1566099107       -3.5579448952
 H       -10.8214214573       -5.8231225730       -4.5010849041
 H       -10.9665290026       -3.6303665118       -2.4785982237
 H       -11.5649231860       -5.2717452076       -2.2819222034
 H       -14.9573876608       -1.1674868383       -3.7584824699
 H       -13.4211923747       -1.6723333588       -4.6861058794
 H       -13.0239204453        0.8643212807       -3.0340368449
 H       -14.1492414708        0.8351424096       -4.4609898347
 H       -12.1701569900        2.4892238372       -7.4199259783
 H       -11.5256767694        1.0286999023       -8.1509221285
 H       -10.8069643513        2.7125522363       -9.5310169091
 H        -9.3865561284        2.4625149464       -8.6669294126
 H       -10.5736964383        6.8514115912       -7.3253694958
 H        -9.3706584971        8.2488883172       -7.3655142091
 H        -9.2189751345        6.8797374413       -6.3269233993
 H        -9.8780387231        4.2633353569      -11.1357929039
 H        -8.5203692098        4.0332918200      -10.0074871870
 H        -8.5813762715        5.3292556638      -11.0794665241
 H       -11.7172963214        5.7876791694      -10.6278042296
 H       -10.8089407419        7.1547739856      -10.3414118140
 H       -11.8056472095        6.5878683870       -8.9622930601
 H       -11.6639225303        3.6854130729       -5.2966324511
 H       -12.5117029721        2.8850983581       -3.7581213282
 H       -13.1320335262        2.5693410897       -5.4927984481
 H        -9.1785415890        2.3119500543       -4.1523627387
 H        -9.6250948203        0.7020713648       -3.4439614213
 H       -10.3804916693        2.2728313040       -2.9266394013
 H       -15.8792777372       -2.9044923124       -2.1952289977
 H       -15.6859686518       -4.6131650886       -2.7098611320
 H       -15.6115708139       -3.1725753025       -3.8534117282
 H       -13.6806498163       -5.0555889333       -0.9373431078
 H       -14.5293905007       -3.5459630396       -0.4774394967
 H       -12.8768079506       -3.5366046356       -0.5965659953
 H        -9.6799171284       -6.6906466215       -5.8490164398
 H        -8.2026899182       -6.5396174795       -6.7400956788
 H        -9.7341923967       -6.4022408669       -7.5770998249
 H        -7.3358463402       -4.9525442069       -5.4639890226
 H        -7.4802764071       -3.3482113181       -5.8144386947
 H        -7.1559342408       -4.5750000885       -7.1342681346
 H       -12.6070000924       -2.5869053665      -11.1298290979
 H       -13.7320623325       -3.9670600069      -11.4569282908
 H       -13.1527658354       -3.1343244860      -12.8650669277
 H       -10.9558527287       -6.3660157696      -12.5089267209
 H       -12.2159334663       -5.5176462843      -13.5441708482
 H       -12.6184018454       -6.2733478129      -11.9830948057
 H        -6.9492552006        1.0279091535      -13.1337597998
 H        -6.0429678812        1.6740066806      -11.8921184028
 H        -7.7856469826        2.0809412331      -11.8487024887
 H        -5.1982092621       -0.2949824190      -11.5968471787
 H        -6.3238060234       -1.2793756386      -12.3867572737
 H        -5.9005806213       -1.6137148060      -10.6714992368
 H        -4.3790935509       -1.6289900403       -3.1018832055
 H        -5.7336698822       -2.2992041983       -3.8142270002
 H        -5.8612286160       -0.7846595507       -3.0193130418
 H        -3.9557955073        0.8727158429       -3.6411075138
 H        -5.2672133095        1.3297521843       -4.7753729283
 H        -3.6976885519        1.1210490385       -5.3148578479
 H         1.6645604491       -3.8829228627       -6.0694761616
 H         2.6372415236       -3.3783354741       -7.3488635717
 H         1.0588598771       -3.5292894867       -7.7655357514
 H         3.3463040116       -0.5125810344       -6.1192234702
 H         3.0011545075       -1.9013529206       -5.1457497741
 H         2.0955075406       -0.6545614046       -4.8489979531
 H         5.7260214371        3.0487325452      -11.6408834355
 H         4.2337701567        3.7600083316      -11.9970443901
 H         5.0513352824        2.7413503599      -13.2085263186
 H         2.4799877039        0.3623097097      -12.5635419435
 H         3.3119539364        1.3373197232      -13.7656237612
 H         2.0826158199        2.0073422850      -12.5545535883
 H         5.4304453365       -3.1018180273      -11.3143169462
 H         5.3500996617       -4.8113743299      -11.8858401425
 H         4.5744923958       -3.4751248362      -12.6814270673
 H         8.1355615850       -5.0812641554      -12.8726608109
 H         8.4239300757       -3.6744814172      -11.7332602000
 H         8.8455073831       -3.5638908290      -13.4363571220
 H         4.0221581819       -5.2188747977      -19.9791174738
 H         3.7557040951       -5.0850478002      -18.2982478598
 H         3.9669583300       -6.7101403293      -18.9657885129
 H         7.7533887209       -6.3969499958      -19.2024640775
 H         6.6769754605       -6.1802236183      -20.6217831981
 H         6.4060765848       -7.3919606478      -19.2614267075
 H        12.1196573936       -0.6061642393      -19.8880927760
 H        11.7724638482       -2.0478533567      -18.9461357466
 H        11.2561796910       -0.4811652125      -18.2190715253
 H        10.4384867934        0.7286343430      -21.3828418540
 H         9.6221316378        1.1110319770      -19.9321979220
 H         8.7588753075        0.3092487454      -21.2333982097
 Na       -9.1471890005       -1.1102675532       -6.2915578667
 Na        6.9853143894       -1.8740688944      -16.6931000430
