232

 C        11.0970105738       -1.6547390700      -22.2080619806
 C        10.3104091998       -2.1359954357      -21.0506653286
 O         9.9287354719       -3.2635890413      -20.9880446917
 C         9.9570267768       -1.1318820252      -19.9172422864
 C         8.6092188985       -1.5926255443      -19.1693366235
 O         8.5057902828       -1.3820716772      -18.0011433357
 C         7.3345483419       -2.0468448473      -19.9453235319
 C         7.1315035659       -3.5925381977      -19.7175738694
 C         5.9576676533       -4.0128900424      -18.8547827961
 O         5.3180506269       -3.1706524661      -18.1905931874
 C         5.6307460565       -5.5636707923      -18.8043385545
 C         5.9457535433       -5.9752265024      -17.2554768790
 O         6.9957503834       -6.5519436461      -17.0107468437
 C         4.9905474251       -5.4054113225      -16.2471663844
 C         5.6195568399       -5.2886639357      -14.8724172068
 C         6.7015016549       -4.2008101555      -14.6154031998
 O         7.3601888997       -3.7479464037      -15.5446375315
 C         6.8302900926       -3.4827408329      -13.1896916436
 C         6.9028817078       -1.8809904983      -13.4467769770
 O         6.8228072773       -1.2245851994      -14.4721338810
 C         7.0314905383       -0.9937369739      -12.1307618871
 C         6.3719759755        0.3402252995      -12.1662830641
 C         4.8599223669        0.2479166825      -12.1434973832
 O         4.3182024615       -0.8628808659      -12.2211926165
 C         3.9745242407        1.5098468681      -11.8906906705
 C         3.7350959424        1.3919326278      -10.2404530768
 O         4.4260303598        2.0292255707       -9.4714562526
 C         2.6603081303        0.4263046482       -9.8474449601
 C         2.4920435138        0.2571957057       -8.3812699538
 C         1.6623815287       -1.0075960081       -8.1430648574
 O         1.3137943037       -1.6245382138       -9.1310605800
 C         1.4653853522       -1.5934306674       -6.6792479665
 C         0.0171039269       -1.0204589890       -6.1812531001
 O        -0.2427729858        0.1515483645       -6.3522327077
 C        -0.9952069781       -2.0311851188       -5.6636427651
 C        -2.1035534787       -1.1715470049       -4.8955639131
 C        -3.4413535724       -1.3501961108       -5.5826981867
 O        -3.6435211288       -2.1447696702       -6.4849818152
 C        -4.5387928567       -0.4812605414       -4.9528229918
 C        -5.7535432408       -0.5873364668       -5.9966191850
 O        -6.7667124556       -1.2403445393       -5.6982091327
 C        -5.6984082675        0.2088298579       -7.4143469612
 C        -6.6893273681       -0.4233775099       -8.4662032703
 C        -6.9270958013        0.7084225674       -9.5071569332
 O        -6.7949659036        1.9011634470       -9.2546438218
 C        -7.1545539534        0.1572938165      -10.9484535403
 C        -8.6281956198       -0.2129156712      -11.1264561441
 O        -9.4916902195        0.4356767479      -10.6485966741
 C        -8.9135351697       -1.4819236385      -12.0061128511
 C       -10.3594356884       -1.9934899596      -11.8569929703
 C       -10.4769973355       -3.4127529101      -12.3408831486
 O        -9.5867670585       -3.8846081725      -12.9821586709
 C       -11.7265640677       -4.4237868579      -11.9638601890
 C       -11.2879026045       -4.7870596349      -10.4807873921
 O       -10.3594239349       -5.5560200558      -10.3573514443
 C       -11.9225083958       -4.0614850606       -9.2371792732
 C       -11.3116713202       -4.6066354180       -7.9237988002
 C       -10.0193893209       -3.9615882777       -7.2974804385
 O        -9.8064311187       -2.7720514107       -7.5365688680
 C        -9.1110611055       -4.5685134479       -6.2063611437
 C        -9.6725358995       -4.0975863979       -4.8701490467
 O        -9.4135706260       -3.0135791792       -4.3622194248
 C       -10.5741354431       -5.0455521622       -4.1666971786
 C       -11.3395342112       -4.1807091075       -3.1516421197
 C       -12.8095749577       -4.0252590584       -3.5569562429
 O       -13.1102299226       -4.4228029713       -4.6401182066
 C       -13.8982556807       -3.3995186165       -2.5591107826
 C       -13.3681543869       -1.8981563229       -2.6041603620
 O       -12.5493568293       -1.5431523679       -1.7668143002
 C       -13.8370657378       -0.9533053256       -3.7558652332
 C       -12.9316050318        0.2863259617       -3.7196174087
 C       -11.8289667498        0.3271114033       -4.7061792051
 O       -11.4911616243       -0.7902043186       -5.1521513157
 C       -11.0401321236        1.6441764529       -4.9911795637
 C       -10.5541606415        1.5454862612       -6.4989509470
 O        -9.4200579391        1.0358359179       -6.6249755585
 C       -11.4583057225        1.9268962951       -7.5994601447
 C       -10.7706150734        2.7547384229       -8.6951691912
 C       -10.5573890942        4.2179509177       -8.2415779915
 O       -10.9898536309        4.6151985086       -7.1482594008
 C       -10.0027717760        5.3313197075       -9.3067589162
 C        -8.9566044780        6.3427817292       -8.6517881615
 O        -7.8426188393        6.2875227415       -9.0897869788
 C        -9.3493938027        7.1559146431       -7.5130202914
 C        -9.3040993577        4.6349874042      -10.4554398766
 C       -11.1984443348        6.0602102068       -9.8268422569
 C       -11.8464058849        2.8983693004       -4.7972966081
 C        -9.8666349954        1.6738731352       -3.9851824378
 C       -15.3016110580       -3.4792289740       -3.2324446186
 C       -13.9331430732       -4.0651887347       -1.1674618668
 C        -9.0132490302       -6.0993666544       -6.2526196218
 C        -7.7779190300       -4.0084458868       -6.6043402900
 C       -13.0714595285       -3.7113760269      -11.9024913400
 C       -11.7974501847       -5.6650411687      -12.9204279385
 C        -6.9414742843        1.3772608926      -11.9933288056
 C        -6.1790320851       -0.9643882137      -11.2995328049
 C        -5.0065377031       -1.1759036555       -3.6637138510
 C        -4.1700710797        1.0445565217       -4.6356042462
 C         1.4895217087       -3.1883234111       -6.6829478245
 C         2.5190878403       -1.1137900327       -5.6629928174
 C         4.6614219102        2.8693155036      -12.1486627499
 C         2.6197652163        1.4582800822      -12.5810808607
 C         5.5221463675       -3.5706206393      -12.3593685596
 C         8.1187081308       -3.8671917174      -12.3783205249
 C         4.1009356876       -5.6506330671      -19.3574616344
 C         6.6535001697       -6.3502857051      -19.6476615478
 C        11.0683064827       -0.9189463995      -18.9520447829
 C         9.3912768405        0.1687637857      -20.5862167313
 H        10.7592654811       -2.1640867322      -23.0880177361
 H        12.0364764035       -2.1076036173      -22.1086385090
 H        11.0661561255       -0.6378112807      -22.4573375265
 H         7.4622859381       -1.9282343615      -21.0100439804
 H         6.6188927814       -1.3660604389      -19.4480239844
 H         8.0614385440       -4.0212737892      -19.3422083216
 H         7.1291086881       -4.0983370752      -20.7038852992
 H         4.1179418017       -6.0942649840      -16.2312418568
 H         4.5504799006       -4.4218286072      -16.4225317984
 H         5.9633671866       -6.2614471020      -14.6433930809
 H         4.8140891860       -5.0343651814      -14.0782047415
 H         8.0949929305       -0.8413169198      -12.0287558449
 H         6.7485162360       -1.5661565805      -11.2637076196
 H         6.5950309715        0.8137064488      -13.1636963931
 H         6.8051390442        1.1038084537      -11.5043215355
 H         2.8404880002       -0.4757560241      -10.3875262599
 H         1.6718597995        0.8036263773      -10.1700514485
 H         2.0502981662        1.1411008374       -7.9272605495
 H         3.4706933124        0.1577364808       -7.8779465363
 H        -0.5492393916       -2.8921019560       -5.0664009184
 H        -1.5826945431       -2.4587670501       -6.4805126941
 H        -1.7406222394       -0.1465796841       -4.7725989234
 H        -2.3395549475       -1.6350875238       -3.8466472813
 H        -4.7044258593        0.2920856411       -7.8209455723
 H        -6.2274623088        1.1764199968       -7.2848349005
 H        -7.4677043675       -0.9407496838       -8.0585409242
 H        -6.0204822095       -1.1894353054       -8.9916846863
 H        -8.2678906695       -2.3584447930      -11.8849096254
 H        -8.6256595309       -1.3029890996      -13.0296594790
 H       -11.0212037943       -1.4464311825      -12.4750913436
 H       -10.7963308947       -1.9218979923      -10.8141488229
 H       -12.9899661471       -4.2243991129       -9.3004296071
 H       -11.8040389828       -2.9581697147       -9.3055408235
 H       -11.2146476524       -5.7226418076       -8.0443181363
 H       -11.9887400503       -4.4389464099       -7.0716693402
 H        -9.9613370078       -5.7173529631       -3.5729661810
 H       -11.3280835840       -5.5575329986       -4.7693303104
 H       -10.9749024991       -3.1882890072       -3.2796069130
 H       -11.1402175075       -4.4438845888       -2.1054623323
 H       -14.8887903420       -0.7601522362       -3.6002345576
 H       -13.7447898301       -1.4575626928       -4.6940136000
 H       -12.4524406656        0.2833002191       -2.6836580228
 H       -13.6684892753        1.0879437977       -3.8398197609
 H       -12.3041874978        2.5231220332       -7.2413379507
 H       -11.8775986182        1.0119501299       -8.0284784414
 H       -11.3468946737        2.7808707927       -9.5719506222
 H        -9.8256195201        2.2809294297       -8.9759123267
 H       -10.3859090380        7.3465528791       -7.2962733384
 H        -8.7929972166        8.0793309148       -7.6484423100
 H        -8.8318483328        6.8062610200       -6.6081660656
 H        -9.9751237747        3.9278785534      -10.9591481923
 H        -8.4136785139        4.1364531583      -10.0766928245
 H        -8.9354431051        5.2366226491      -11.3029190256
 H       -11.9247140810        5.3921101084      -10.2450333514
 H       -10.8498546126        6.7740557904      -10.5999759601
 H       -11.6849621921        6.7058880530       -9.0818835292
 H       -11.1756340410        3.6514254867       -5.0398145398
 H       -12.1173189622        2.9291604182       -3.7938460918
 H       -12.6988403937        2.9744614508       -5.4808448882
 H        -9.1127591140        2.4317562965       -4.2184240577
 H        -9.3906418746        0.7017731192       -3.9218780599
 H       -10.1826836201        1.9612601506       -3.0423839063
 H       -16.0369584601       -2.7725976067       -2.8474967417
 H       -15.6052858459       -4.5226570967       -3.2029291432
 H       -15.0909394357       -3.2489291378       -4.2958031538
 H       -13.9958311475       -5.1883942859       -1.3952976431
 H       -14.7380167347       -3.8040538303       -0.5095467598
 H       -12.9783869554       -4.0196154134       -0.5793291879
 H        -8.3692885279       -6.6384074974       -5.5413283456
 H        -8.5175152339       -6.3288939953       -7.2779386153
 H        -9.9562326201       -6.5771294104       -6.3303856632
 H        -7.0393445286       -3.9986206560       -5.8306900881
 H        -7.9199340927       -2.9373914503       -6.8064638514
 H        -7.5185357618       -4.5195034533       -7.5975221424
 H       -13.0885110954       -2.8110903131      -11.3607381112
 H       -13.7439304069       -4.4347082091      -11.5619376809
 H       -13.4665180127       -3.5250059918      -12.8810181474
 H       -10.8619692336       -6.2475566326      -12.9342927052
 H       -12.0069269580       -5.2645129319      -13.9212633807
 H       -12.6844682380       -6.2400957207      -12.6572608584
 H        -7.2331389447        1.0263256965      -13.0105232866
 H        -5.8666489536        1.5696746737      -11.9908151575
 H        -7.6181772109        2.1587977477      -11.6329955529
 H        -5.1025444481       -0.8536001196      -10.8809840296
 H        -6.0943226873       -0.9865251160      -12.3705376082
 H        -6.4469098145       -1.9088390626      -10.9489046121
 H        -4.2729551384       -0.9871036564       -2.8437934465
 H        -5.0029070104       -2.2594885081       -3.6745308361
 H        -6.0308700791       -0.8634674366       -3.3390009417
 H        -3.0850530097        1.2501008891       -4.4317147181
 H        -4.8098852725        1.5413437807       -3.8466004515
 H        -4.2981045488        1.5587624942       -5.5959583778
 H         1.2270056197       -3.5013667269       -5.6750945453
 H         2.3757105974       -3.6457520335       -6.9031943472
 H         0.7385494278       -3.6607687839       -7.3358819184
 H         3.4564882256       -1.7665942869       -5.7877552652
 H         2.1751190500       -1.0308923087       -4.5910622259
 H         2.7926766131       -0.0407408577       -6.0109611746
 H         5.3289966288        3.3053135587      -11.3290325478
 H         3.8742447559        3.6082258023      -12.0615945927
 H         5.1393469361        2.8360046992      -13.1199551304
 H         2.1493235737        0.4839746271      -12.4673096644
 H         2.7930364903        1.5866225237      -13.6470786046
 H         1.9654537945        2.1646358961      -12.1124862133
 H         5.5212837328       -2.9111007517      -11.4396905156
 H         5.1782157790       -4.5793238166      -12.1309610874
 H         4.7035005394       -3.3632411233      -12.9567591704
 H         8.0998741776       -4.9406747766      -12.0463490896
 H         8.1112073952       -3.3132460856      -11.4368988690
 H         8.9515977825       -3.6905841442      -12.9690302874
 H         4.1036628842       -5.5253672543      -20.5090377111
 H         3.6438163116       -4.7682564142      -18.9324089918
 H         3.5405698284       -6.5507205638      -19.0930183867
 H         7.6253000706       -6.1575353463      -19.3037469083
 H         6.6667690944       -6.0322179852      -20.7637266919
 H         6.4732570731       -7.3992628766      -19.5626542381
 H        11.9237026508       -0.6414662466      -19.5069518111
 H        11.2199234150       -1.7623550544      -18.3016797334
 H        10.7972570333       -0.1605784650      -18.2501114204
 H        10.0827943328        0.9283948795      -20.7872223822
 H         8.5754715240        0.6863956595      -20.1125585491
 H         8.8616956478       -0.0536685098      -21.4836970090
 Na       -9.3222283218       -1.2026610888       -6.0639409128
 Na        6.7307767497       -1.9723278832      -16.7154627081
