232

 C        11.2717695951       -1.6238959367      -22.1708084212
 C        10.2391315747       -2.0960764643      -21.1033542394
 O         9.8414530475       -3.2228723932      -20.9909017963
 C         9.7238637342       -1.0440268808      -19.9370823078
 C         8.4453786457       -1.4868757701      -19.2165652776
 O         8.4976170542       -1.4447712587      -17.9349069773
 C         7.2792498700       -2.0879479271      -19.9708769533
 C         7.1165536393       -3.5832118951      -19.7928757072
 C         5.9604625895       -3.9995679154      -18.9390127135
 O         5.2697882976       -3.2593558979      -18.2359821430
 C         5.6833009860       -5.4716167247      -18.8870556137
 C         5.9516701182       -5.8204805063      -17.3673814276
 O         6.9991723714       -6.3411671881      -17.1291100153
 C         5.0213039639       -5.4987312228      -16.1853813958
 C         5.6674888962       -5.4090005984      -14.7532269516
 C         6.5596455835       -4.1161814899      -14.5520324753
 O         7.2619095263       -3.8087338872      -15.4449115184
 C         6.6787439481       -3.3138334329      -13.1837593016
 C         6.8742145219       -1.8060521059      -13.3473941417
 O         6.8980398851       -1.3106775227      -14.4273897783
 C         7.1125205083       -0.8831298731      -12.0904542828
 C         6.3317558276        0.3854529120      -12.2270881807
 C         4.8598149288        0.2310630457      -12.2056014375
 O         4.2245785186       -0.8091188566      -12.4743772581
 C         3.9866004324        1.5206569644      -11.8167275443
 C         3.7593372183        1.3567043362      -10.2774539039
 O         4.4035414076        2.0062757061       -9.4831010359
 C         2.6813181920        0.4305841194       -9.8812330022
 C         2.6586871930        0.0553091267       -8.4202283416
 C         1.7491912356       -1.2106003901       -8.0844102225
 O         1.1515777217       -1.7538428935       -8.9726303064
 C         1.4875192604       -1.6066560857       -6.5982637508
 C         0.0577586769       -1.0347194125       -6.2481286203
 O        -0.1784763799        0.1545196396       -6.3790053797
 C        -0.8958470646       -2.0061569224       -5.5449151153
 C        -2.1389254677       -1.2173543579       -4.7750415026
 C        -3.4357232245       -1.2821684431       -5.5317011015
 O        -3.5969169828       -2.0140611402       -6.4858071364
 C        -4.6057809403       -0.4390108530       -4.9821933818
 C        -5.8409255253       -0.5674065695       -5.9280384449
 O        -6.8402357672       -1.2213821187       -5.6702325210
 C        -5.6517445874        0.1929153693       -7.2105756051
 C        -6.5680477025       -0.4488415410       -8.3857671718
 C        -6.8425258649        0.5919914599       -9.5933124584
 O        -7.0377589788        1.7360745458       -9.2109686940
 C        -7.1138714683        0.1219628129      -11.0278382293
 C        -8.6636742271       -0.2382992492      -11.1670767373
 O        -9.5148391754        0.5265606574      -10.6898949184
 C        -9.0288613746       -1.5337259234      -11.8490695220
 C       -10.4491008937       -2.0303642816      -11.6540192060
 C       -10.4608300227       -3.4315977301      -12.3626611358
 O        -9.5026190737       -3.8667279192      -13.0009144406
 C       -11.7261808714       -4.3685000462      -11.9344930905
 C       -11.2314689916       -4.8006483454      -10.4846580730
 O       -10.3219633211       -5.5853916191      -10.3550644706
 C       -11.8025800613       -4.1822462816       -9.2207689095
 C       -11.3228967765       -4.8271903512       -7.9028577688
 C       -10.1740297005       -4.0136449726       -7.2744458634
 O       -10.0930655276       -2.8062163083       -7.5420289526
 C        -9.0393602419       -4.6184271162       -6.3957530306
 C        -9.4717546724       -4.0985220183       -4.7853215098
 O        -9.1957072958       -2.9731849408       -4.4485472231
 C       -10.5590779689       -4.9520990456       -4.0590025824
 C       -11.4163927762       -4.2871168757       -2.9472828470
 C       -12.8340549974       -4.1012685165       -3.5731206618
 O       -13.1457699059       -4.3255788019       -4.7562303164
 C       -13.9027663579       -3.4232750669       -2.7321992592
 C       -13.4189014796       -1.8342750968       -2.5833070179
 O       -12.5649521959       -1.5915799180       -1.7814506014
 C       -13.8470787608       -0.8338592846       -3.6168734100
 C       -12.9636571782        0.4511218919       -3.5635459232
 C       -11.7751024159        0.2648566445       -4.5378847704
 O       -11.4975699069       -0.7582915268       -5.1083250145
 C       -10.9801024787        1.5846204761       -4.9111628373
 C       -10.5045038997        1.5304789126       -6.5189767996
 O        -9.4922018287        1.0227233254       -6.8402692930
 C       -11.4339933606        1.9473251886       -7.6389034868
 C       -10.7647200080        2.8383538868       -8.7685590540
 C       -10.6186701886        4.2641641660       -8.3174157191
 O       -10.8520803630        4.5335437462       -7.1511575478
 C       -10.0630846393        5.2291720515       -9.3466115815
 C        -8.8999636620        6.2786407119       -8.6236240056
 O        -7.8588716963        6.2948245601       -9.2204363938
 C        -9.3215701694        7.1410133197       -7.5464288266
 C        -9.2201102247        4.5613941840      -10.5174537567
 C       -11.3020901275        6.0902645404       -9.8785829790
 C       -11.8954362054        2.9212806675       -4.6478586564
 C        -9.6513079039        1.5776408167       -4.1303178805
 C       -15.3242543803       -3.5585164813       -3.2960943006
 C       -14.0188362778       -3.9511851256       -1.2543365330
 C        -8.9629428329       -6.1788796742       -6.3588039421
 C        -7.5534242296       -4.0516129719       -6.6907249094
 C       -13.1361738850       -3.6227497522      -12.0466197642
 C       -11.7293486722       -5.5885094450      -12.8276439787
 C        -6.9239225295        1.3950269066      -12.0018738423
 C        -6.0918899315       -0.9398640316      -11.4363407698
 C        -4.8643567476       -1.0640917773       -3.5414748723
 C        -4.1394420785        0.9886461676       -4.7605467422
 C         1.4383002220       -3.0993639369       -6.6457454074
 C         2.4767707010       -1.0434794216       -5.5881674151
 C         4.7201869559        2.8457776441      -12.2285383938
 C         2.6546771912        1.4928047369      -12.5637456246
 C         5.4426204947       -3.6430993340      -12.3992316408
 C         8.1099836432       -3.8299717615      -12.5894688817
 C         4.1348268585       -5.6527188086      -19.1791771713
 C         6.6094215579       -6.3828248693      -19.7228468306
 C        10.8476404276       -0.7823748734      -18.8771697660
 C         9.4255562522        0.3780913987      -20.5980075085
 H        11.2206081539       -2.3014632206      -23.0170048859
 H        12.2213776608       -1.8910286360      -21.8242742809
 H        11.1210582475       -0.6211466323      -22.6712833435
 H         7.4432952386       -1.8675987703      -21.0335607590
 H         6.4274432679       -1.6141214840      -19.4844884866
 H         8.0602872829       -4.1511310682      -19.5803735623
 H         6.9429742441       -4.0198450755      -20.7054558669
 H         4.1702076269       -6.2162681890      -16.1163791993
 H         4.5287922132       -4.5744651037      -16.2649528811
 H         6.3241019048       -6.2882924826      -14.6983722980
 H         4.8444222095       -5.5589713036      -13.9247412376
 H         8.2144220231       -0.7612551457      -11.9915463896
 H         6.8038705728       -1.4307108812      -11.2118849739
 H         6.6502439627        1.0152623242      -13.0690305917
 H         6.4690947098        1.1390901381      -11.3952176757
 H         2.8569801186       -0.3935197951      -10.5014641884
 H         1.6821879772        0.8431452067      -10.1590107442
 H         2.4665202924        0.8940741478       -7.7720826389
 H         3.7132979093       -0.2205093505       -8.2332625185
 H        -0.3143332599       -2.7079857272       -4.8981896063
 H        -1.4539005090       -2.6025859138       -6.2785676373
 H        -1.7901662225       -0.1600467153       -4.6563107819
 H        -2.3680595722       -1.6071641854       -3.8279798121
 H        -4.5835779647        0.0981483206       -7.3136229072
 H        -6.0536871478        1.1476315202       -7.2016234628
 H        -7.5930892372       -0.6100127915       -7.9557845530
 H        -6.2017170324       -1.4029986873       -8.6381765384
 H        -8.3370528889       -2.3742144812      -11.6264299452
 H        -8.7318888528       -1.4735469717      -12.8753379271
 H       -11.1751463764       -1.3538852920      -12.0785803048
 H       -10.6679909353       -2.1621928460      -10.5469849424
 H       -12.8575916272       -4.0182763185       -9.3327472662
 H       -11.3873309954       -3.1199079177       -9.2557657605
 H       -10.9429780580       -5.8361971835       -8.1260616259
 H       -12.1234525171       -4.9306937654       -7.1011314714
 H       -10.1359547432       -5.6948864526       -3.3691976467
 H       -11.2684017535       -5.3446766809       -4.7338616597
 H       -11.1095205095       -3.2831744528       -2.6121471501
 H       -11.4264329852       -4.9141057295       -2.1397690352
 H       -14.9632581321       -0.7453086822       -3.4944972303
 H       -13.7048527825       -1.3918835306       -4.6399473786
 H       -12.6350831496        0.5403790827       -2.5075659678
 H       -13.6697334777        1.2512396082       -3.8777437205
 H       -12.3657602127        2.3812215863       -7.3504976117
 H       -11.6733322750        1.0237386372       -8.0969394885
 H       -11.3273340539        2.7987304634       -9.6321596307
 H        -9.8021480625        2.3774542342       -8.9703354811
 H       -10.3486850119        7.2997427722       -7.4350953992
 H        -8.7553132339        8.0989211485       -7.5244484684
 H        -8.9162494736        6.6796083991       -6.6458250884
 H        -9.7110603691        3.9400257700      -11.1688039600
 H        -8.3883438633        3.9681533865      -10.0547105954
 H        -8.6942063453        5.2709805361      -11.1765172781
 H       -12.1355868856        5.4744641058      -10.2692816565
 H       -10.9028562181        6.8542892528      -10.5652137036
 H       -11.7779709675        6.6759952766       -9.1204739329
 H       -11.3635269853        3.8462646515       -5.0435733827
 H       -12.1141863773        2.9627707148       -3.5876876298
 H       -12.8044454983        2.7443077228       -5.2724281665
 H        -9.1446845941        2.5172770121       -4.0608871398
 H        -9.0031911383        0.7824635465       -4.5495278008
 H        -9.8046521445        1.3132237081       -3.0852969038
 H       -15.9889842340       -2.8210021066       -2.7120427061
 H       -15.6215509605       -4.6081322775       -3.1753211809
 H       -15.3340397441       -3.3281745967       -4.3982800413
 H       -14.2225886725       -5.0399035925       -1.2135550350
 H       -14.7687252485       -3.4341677003       -0.5798797309
 H       -13.0346304767       -3.8827528064       -0.7735111547
 H        -7.9887201601       -6.6294169685       -6.1432832554
 H        -9.1862948345       -6.6178418583       -7.3436603452
 H        -9.6938247079       -6.6446763855       -5.6979493880
 H        -6.7860925116       -4.2509774887       -5.8804027945
 H        -7.6125914926       -3.0196757036       -6.7313359497
 H        -7.3349781450       -4.3763480231       -7.6768002865
 H       -13.2271837888       -2.7017582060      -11.5042489211
 H       -13.8607503759       -4.3319445932      -11.8075676563
 H       -13.3525532521       -3.3582778413      -13.0845006399
 H       -10.7830581471       -6.1302015585      -12.7735434790
 H       -11.8287135656       -5.2099495349      -13.8064880886
 H       -12.6384557008       -6.1252457400      -12.6546054250
 H        -7.2739431973        1.1124911437      -13.0275169462
 H        -5.8797031904        1.5625439890      -11.9735028650
 H        -7.5620566645        2.1999277082      -11.5761357152
 H        -5.0835863141       -0.6697931047      -11.2680850480
 H        -6.2142256105       -1.2118019275      -12.5309295324
 H        -6.1941281971       -1.8727880464      -10.8364102660
 H        -3.9779198393       -0.8385202891       -2.9666493017
 H        -4.7899401296       -2.1491726258       -3.5488491214
 H        -5.7582263826       -0.8469675754       -2.9655680322
 H        -3.1632829723        0.9809477688       -4.2660569330
 H        -4.7687566151        1.5152124023       -4.0522184032
 H        -3.9307574924        1.5917531280       -5.7075331732
 H         1.6259486391       -3.6687577251       -5.7818436215
 H         2.1593053254       -3.3884776551       -7.4408723179
 H         0.4814500417       -3.4558855475       -6.9746409619
 H         3.3461559632       -1.7586566784       -5.5612566534
 H         2.0098855984       -1.0329069594       -4.5272399019
 H         2.8858247695        0.0124293931       -5.8376637419
 H         5.4552101593        3.2919153988      -11.4850247655
 H         3.9860230032        3.6677565037      -12.2849970803
 H         5.1298359152        2.6614187132      -13.1849143289
 H         2.1310472903        0.5447769920      -12.4237216561
 H         2.9061761145        1.5481442867      -13.6299822388
 H         2.0060044701        2.2997123540      -12.2281115883
 H         5.4389215283       -3.1576346646      -11.4420469410
 H         5.2368087001       -4.7372216493      -12.3250626468
 H         4.4990831464       -3.5038518417      -12.9823654183
 H         7.9497438008       -4.8157433114      -12.1229042056
 H         8.4799570486       -3.2558112582      -11.7941996286
 H         8.7706205423       -3.9260207483      -13.4471204252
 H         3.9777783913       -5.4720685198      -20.2405870485
 H         3.6072361324       -4.9195073996      -18.5771925025
 H         3.7592220113       -6.7263729470      -18.9399932687
 H         7.6436793260       -6.1640344433      -19.3892597537
 H         6.6462145611       -6.2619700928      -20.7836981580
 H         6.3474730646       -7.4000948885      -19.4985405073
 H        11.7931601680       -0.5660664358      -19.4647181610
 H        10.9317033755       -1.5963027583      -18.1991345695
 H        10.6154446978        0.0500158912      -18.1773261815
 H        10.3862622651        0.8517519603      -20.8541576052
 H         9.0016241680        1.0652661234      -19.8416395013
 H         8.7031302133        0.5666337322      -21.3276762954
 Na       -9.1439313574       -1.1585291813       -5.8814019824
 Na        6.6145446439       -2.0428558657      -16.7610764717
