232

 C        11.2866953123       -1.6084533062      -21.9377362161
 C        10.2018871263       -1.9759543345      -21.0286161589
 O         9.7407541921       -3.1308499577      -21.0172946609
 C         9.6601018910       -0.8487851853      -19.9783713051
 C         8.3877977354       -1.4521268800      -19.2285012022
 O         8.3659072262       -1.5084651301      -17.9775721684
 C         7.2072760769       -1.9479998119      -20.0394903047
 C         7.1085582616       -3.4644272669      -19.9338096951
 C         5.9628654196       -4.0198154085      -19.0111066727
 O         5.3529012486       -3.2051335589      -18.3451430018
 C         5.6635388407       -5.4929942964      -18.7830414379
 C         6.0750199973       -5.7409225862      -17.2748305371
 O         7.1573560765       -6.2329992544      -17.0919966531
 C         5.0210332760       -5.5149793148      -16.1260158491
 C         5.7371248255       -5.4328877977      -14.7277773371
 C         6.4614398864       -4.1257587305      -14.5924446396
 O         7.2242066010       -3.8023358165      -15.5309728441
 C         6.4984222117       -3.3865679343      -13.2227357967
 C         6.8196897882       -1.7495286754      -13.4001512784
 O         6.9266563332       -1.2345194777      -14.5240056029
 C         7.1112637617       -0.9232459270      -12.1476676276
 C         6.3415450393        0.4161851368      -12.2211146523
 C         4.7670944760        0.3016007010      -12.3021164839
 O         4.2914817516       -0.6996026484      -12.7045087810
 C         3.9316771490        1.5713442092      -11.9481214483
 C         3.7419191634        1.4391797883      -10.2855274125
 O         4.4477154751        1.9848364258       -9.4989249936
 C         2.6278319026        0.3123342910       -9.8531202620
 C         2.8486920344       -0.2321836305       -8.4192719876
 C         1.7030260877       -1.2153434801       -8.0584062772
 O         1.0562859147       -1.8514479834       -8.8782098328
 C         1.4682864439       -1.6401204984       -6.6134409822
 C         0.0953174737       -0.9962107615       -6.1567649910
 O        -0.1498837336        0.1682032321       -6.4054415110
 C        -0.8427189329       -1.9341221268       -5.4607061001
 C        -2.0166632701       -1.2902539796       -4.7200323720
 C        -3.3398002107       -1.3043338075       -5.5202817544
 O        -3.5467187144       -1.8967471379       -6.5654978885
 C        -4.5437009869       -0.4152099194       -4.8828728337
 C        -5.8482333119       -0.5329958546       -5.8480794849
 O        -6.8090546641       -1.1146514939       -5.4462670591
 C        -5.6780503936        0.1993542164       -7.2369708936
 C        -6.5022286266       -0.4221897662       -8.3819063754
 C        -6.8806422679        0.5490907651       -9.4797081980
 O        -7.2565013349        1.6439232828       -9.2120380529
 C        -7.0317157463        0.1225477710      -11.0354461714
 C        -8.6181358472       -0.2389346625      -11.0999799082
 O        -9.4897590483        0.5917740042      -10.7491343121
 C        -8.9822641655       -1.5457739590      -11.7127416912
 C       -10.4255846031       -2.0766983893      -11.5804177577
 C       -10.5412025010       -3.4492837335      -12.2567853948
 O        -9.6666428285       -3.8357738895      -12.9902102470
 C       -11.6794397658       -4.3697982460      -11.9110650562
 C       -11.1906432379       -4.8437862445      -10.4627864579
 O       -10.3087539557       -5.6692965732      -10.4331491735
 C       -11.8159506040       -4.2573977997       -9.1063990195
 C       -11.1833978736       -4.9377421583       -7.9273764386
 C       -10.1961069982       -4.0091890049       -7.3027149516
 O       -10.3377824399       -2.8166980674       -7.4268539599
 C        -9.0902922511       -4.6529001116       -6.2753243426
 C        -9.4724581541       -4.0620891709       -4.9168666874
 O        -8.9407762071       -3.0230533535       -4.5758754757
 C       -10.3466687143       -4.9911196455       -4.0448277009
 C       -11.5364211424       -4.4205808012       -2.9787515283
 C       -12.8893533937       -4.0390396763       -3.6199516763
 O       -13.0510155067       -4.2911452867       -4.8205244579
 C       -13.9984176919       -3.2933520964       -2.7369077652
 C       -13.4015162300       -1.9164386568       -2.5725508172
 O       -12.5747868584       -1.6626239558       -1.7217937374
 C       -13.8955311571       -0.7777252857       -3.5590257540
 C       -12.9658142244        0.5080921450       -3.6263020175
 C       -11.8094212435        0.3585461734       -4.5890148558
 O       -11.4071835607       -0.7323215922       -4.9429327908
 C       -10.8915149600        1.5554785452       -5.0341904607
 C       -10.5709896199        1.4714694274       -6.5329136364
 O        -9.5271689582        0.9327859199       -6.8718482948
 C       -11.5826203187        1.9470076502       -7.6825617445
 C       -10.7708436284        2.7383135026       -8.7786656162
 C       -10.4886650357        4.2500138838       -8.3144810923
 O       -10.7022628450        4.6130049063       -7.1952033829
 C        -9.9448510886        5.2516149122       -9.3971170434
 C        -8.9584139622        6.2336896148       -8.8044849607
 O        -7.8351208542        6.3372608007       -9.2428537001
 C        -9.3613289054        7.0960955564       -7.4920697791
 C        -9.3785506058        4.4984544492      -10.5546557260
 C       -11.2023069375        6.0599263795       -9.9368495894
 C       -11.6925468476        2.8660815570       -4.5674680820
 C        -9.5399816318        1.5946334238       -4.2202743725
 C       -15.4000199584       -3.5245420637       -3.4191165108
 C       -14.0079632444       -3.8512313882       -1.2636783649
 C        -8.9470589507       -6.2153338192       -6.4520673800
 C        -7.6150132263       -4.2086103798       -6.6901089945
 C       -12.9294439570       -3.5657339923      -12.0552254818
 C       -11.6315864235       -5.5922011391      -12.8040493673
 C        -6.8909340581        1.4058232159      -11.9289428975
 C        -6.1104837321       -0.9509097899      -11.6205573817
 C        -4.8917737274       -0.9675934711       -3.3917558190
 C        -4.2359694087        1.0498119502       -4.8823832883
 C         1.4738772797       -3.2221122357       -6.5716724571
 C         2.4736189853       -1.0008316221       -5.4886803149
 C         4.8131800587        2.7924974385      -12.2209084461
 C         2.5892530443        1.5043227994      -12.6707451612
 C         5.4119002470       -3.7508822121      -12.1449123047
 C         7.8951057324       -3.9074194326      -12.7351735064
 C         4.1165462742       -5.8018046590      -19.0227095276
 C         6.3593791148       -6.4209175328      -19.8022506782
 C        10.7445107634       -0.6996053046      -18.9078037095
 C         9.4243898173        0.5535449920      -20.6388323257
 H        11.5592343084       -2.3833554757      -22.6993690417
 H        12.2830785020       -1.5186097645      -21.3768441509
 H        10.9111183193       -0.7753831850      -22.5610165677
 H         7.3871745669       -1.5811290966      -21.0627106630
 H         6.3376501694       -1.5700104512      -19.5121457093
 H         8.0351633210       -3.8974898191      -19.5593795921
 H         7.1365229026       -4.0011287414      -20.8788722476
 H         4.2953743762       -6.3052046784      -16.0315558377
 H         4.4068297457       -4.6227411385      -16.2951154457
 H         6.5820895462       -6.2266968227      -14.9517326322
 H         5.2250994951       -5.7449110294      -13.9235213538
 H         8.2245645119       -0.8402593368      -12.2284655764
 H         6.9578357706       -1.5819878017      -11.2558084737
 H         6.7613101928        0.9911884880      -13.0305662822
 H         6.5201509938        1.1260741685      -11.4087711596
 H         2.5839243686       -0.4311524035      -10.7016911601
 H         1.6619194260        0.7610758395       -9.7690187988
 H         2.7739673270        0.6118463904       -7.7018706217
 H         3.8493884310       -0.6806906301       -8.3212094118
 H        -0.2556708345       -2.4255527308       -4.7233364219
 H        -1.2689318782       -2.7371204610       -6.1007476436
 H        -1.7215285931       -0.2483758166       -4.5920754429
 H        -2.1542315434       -1.6922189384       -3.7732417287
 H        -4.6007650004        0.1002303454       -7.3698235196
 H        -6.0676791558        1.1885268309       -7.2627543423
 H        -7.5327425814       -0.8486097509       -8.0051295571
 H        -5.9824894505       -1.2454583839       -8.7541992401
 H        -8.2686885276       -2.3357383712      -11.4882502354
 H        -8.6155486854       -1.4234099192      -12.7561715339
 H       -11.1048671150       -1.2673627247      -12.0507364640
 H       -10.6206535728       -2.1280070214      -10.5316088134
 H       -12.9044122152       -4.5207631385       -9.1126931851
 H       -11.7962890943       -3.1719882679       -9.1187562764
 H       -10.8394104650       -5.9083070310       -8.2432574365
 H       -11.9155993293       -5.0884312346       -7.0992864835
 H        -9.8158817717       -5.5666133446       -3.2939065001
 H       -10.9623577640       -5.5724128004       -4.7173369490
 H       -11.2033298624       -3.5783459003       -2.3466190898
 H       -11.7533672227       -5.2732383563       -2.3238555143
 H       -14.8592939852       -0.5386475272       -2.9784655988
 H       -14.2563763726       -1.1992507356       -4.5672092875
 H       -12.5891851714        0.5322286954       -2.6214878032
 H       -13.6622361252        1.3124526325       -3.8184182983
 H       -12.3511168258        2.5945979259       -7.3191635974
 H       -12.1011423376        1.1050787153       -8.1164381107
 H       -11.3999976201        2.7976340361       -9.7547456240
 H        -9.9116314351        2.1126465760       -8.9362367516
 H       -10.4339827388        7.4243357806       -7.4518079893
 H        -8.7883337446        8.0007557467       -7.4005164029
 H        -9.0960332706        6.5936742173       -6.5788238198
 H       -10.1378237726        3.9298442190      -11.1360409027
 H        -8.6708096609        3.7371802390      -10.2510699797
 H        -8.8602358756        5.1100458782      -11.2404354491
 H       -11.9497096620        5.3093417575      -10.2932631848
 H       -10.9675106622        6.9060399966      -10.5367808970
 H       -11.8191994479        6.4779914813       -9.1126007272
 H       -11.3329034409        3.8474586455       -5.0250544006
 H       -11.6058753982        2.7835086598       -3.4037455526
 H       -12.7114618740        2.6684485335       -4.8961238232
 H        -9.2847467826        2.5695010310       -3.8100554595
 H        -8.7196627004        1.1656769217       -4.7896308759
 H        -9.6145441956        0.9361410059       -3.2786664618
 H       -16.2127908412       -2.9674448159       -2.8976563420
 H       -15.5515440182       -4.6370260264       -3.4443189857
 H       -15.2926906848       -3.2246339033       -4.4809848408
 H       -14.2564999236       -4.8652175298       -1.1081621093
 H       -14.7089287246       -3.2649355017       -0.5947452457
 H       -13.0063935737       -3.7447277089       -0.8598191683
 H        -7.9554685147       -6.5640029031       -6.6618782471
 H        -9.4142569052       -6.5867645542       -7.2763806078
 H        -9.2865908261       -6.8933582598       -5.6010076038
 H        -6.8430432512       -4.5776046636       -6.0366091105
 H        -7.4794648610       -3.1190517466       -6.7428951096
 H        -7.6122737147       -4.5211515182       -7.6681451925
 H       -12.9169416904       -2.6571554568      -11.4320469850
 H       -13.8366059394       -4.2270069693      -11.8858447083
 H       -12.9863229744       -3.1515306502      -13.0585521590
 H       -10.6882153991       -6.0319346612      -12.6219995094
 H       -11.6698809289       -5.3632909114      -13.8504056978
 H       -12.5411677915       -6.1353292689      -12.5702035866
 H        -7.2623945694        1.0929912916      -12.8894181862
 H        -5.8141072230        1.6644385378      -11.9018967138
 H        -7.5445375846        2.1545105787      -11.5240600895
 H        -5.1378543810       -0.6001749052      -11.7619462794
 H        -6.4115839632       -1.4826874544      -12.5461807952
 H        -5.9661881685       -1.7366226462      -10.7983234498
 H        -4.0467377041       -0.8154797119       -2.7702712644
 H        -5.0332542490       -2.0563999062       -3.3945503478
 H        -5.7624779874       -0.5802855600       -2.9398040897
 H        -3.6273630198        1.3218343108       -4.0295482295
 H        -5.1060209830        1.6401886068       -4.6888803620
 H        -3.6834854389        1.3412080878       -5.7589051227
 H         1.7529807921       -3.6618725896       -5.6020411787
 H         2.2852515944       -3.4513432389       -7.3324207873
 H         0.5310155486       -3.7887131512       -6.7304131929
 H         3.4241963928       -1.5136723735       -5.4846139772
 H         1.9904758668       -1.3780754456       -4.5532891815
 H         2.6544957001        0.0641457266       -5.4742395918
 H         5.5099686593        2.7893885441      -11.4811026287
 H         4.3060976281        3.7805497488      -12.0919782703
 H         5.2732094164        2.7762335883      -13.2530315150
 H         2.1533082905        0.5169485303      -12.5146784338
 H         2.7542243321        1.6294755775      -13.7499273590
 H         1.8961038569        2.2996037205      -12.2812074811
 H         5.6511468361       -3.1446646041      -11.3093243758
 H         5.2437347555       -4.7810973846      -11.8972305884
 H         4.3497892206       -3.6431735778      -12.5462104109
 H         7.8234914817       -4.8071994766      -12.2238755141
 H         8.3140936377       -3.2820552931      -11.9529766292
 H         8.5516762378       -3.9989232173      -13.6478478129
 H         3.9146758718       -5.5730737174      -20.0196997760
 H         3.4075015031       -5.3029530146      -18.3010980122
 H         4.0185064349       -6.8702562002      -18.9309716228
 H         7.4541016779       -6.2435416823      -19.7289694418
 H         6.1531047650       -6.2209558433      -20.7975319555
 H         6.0594168302       -7.4937604488      -19.6845395916
 H        11.7539949232       -0.4224168847      -19.3013727825
 H        10.7355103555       -1.7093379587      -18.4081192548
 H        10.4476687431       -0.0436222418      -18.0546217560
 H        10.2910855083        0.8766065751      -21.2838108115
 H         9.3801021735        1.3251841835      -19.8640756333
 H         8.4564179567        0.8656708545      -21.1022782133
 Na       -9.0505533296       -1.1245771585       -5.7699379525
 Na        6.5293695013       -2.0845254196      -16.7524698927
