232

 C       -22.7931936317       -7.1314854856       -3.4544645180
 C       -21.5517273373       -6.2074530760       -3.3071284916
 O       -20.5130179581       -6.6796858996       -2.8662465919
 C       -21.6518332886       -4.6219813833       -3.7368449000
 C       -20.3088172544       -3.8549047275       -3.5568721565
 O       -19.9031581390       -3.9508180957       -2.3943664410
 C       -19.6792449116       -3.0058606888       -4.6180545777
 C       -18.2078409631       -2.3696993425       -4.3811211204
 C       -17.3046047677       -3.2772356652       -3.5416585597
 O       -17.2754841119       -4.4478201771       -3.7018198699
 C       -16.3919394113       -2.7109934536       -2.4103899352
 C       -16.1467278871       -4.0744807481       -1.5350858092
 O       -17.1891576738       -4.4171901550       -1.0232102990
 C       -14.8963793815       -4.9697312504       -1.5129597036
 C       -15.1759171090       -6.3345563770       -0.9189751957
 C       -15.3829109204       -7.3346366732       -2.0025524662
 O       -16.4748105329       -7.5500620400       -2.5487944581
 C       -14.2080437923       -8.3438372316       -2.3614962819
 C       -12.8570944651       -7.5264326962       -2.5515446370
 O       -12.9783503307       -6.5029902562       -3.2208694493
 C       -11.5012663148       -7.9428032040       -1.9678569268
 C       -10.5240028628       -8.6647683974       -2.9093715268
 C        -9.6162383237       -9.6241252407       -2.0931371086
 O        -9.8528433880       -9.9938498042       -0.9624393285
 C        -8.2458985005      -10.1241840343       -2.8438862972
 C        -7.4628519337       -8.8026709674       -3.2416069755
 O        -7.8702497248       -7.7377484250       -2.8043860027
 C        -6.5025818425       -8.7810347972       -4.4331236946
 C        -6.2406083467       -7.3681996384       -4.9200750448
 C        -6.6309600166       -6.9153925577       -6.3242528659
 O        -7.4641475637       -7.5170045066       -6.9659256765
 C        -5.9492503492       -5.6451941673       -6.8764798579
 C        -4.7991561609       -6.0332913586       -7.9871106064
 O        -3.6809942632       -6.2487899390       -7.6558873701
 C        -5.0389130063       -6.1171039052       -9.5076782887
 C        -4.1217442626       -5.0768121914      -10.1491093558
 C        -3.9662811087       -5.1782349224      -11.7188586399
 O        -3.1085237639       -5.7213010126      -12.3559749457
 C        -5.0552092428       -4.3125767119      -12.5657225196
 C        -4.6387477706       -2.8054258154      -12.4144811959
 O        -5.2000931348       -2.0354366686      -11.6665174182
 C        -3.2577394445       -2.4982237823      -13.0474144129
 C        -2.7326781635       -1.0812415751      -12.7140707344
 C        -1.1339850470       -1.1227141902      -12.8341725953
 O        -0.5534532135       -0.2097889422      -13.4183201912
 C        -0.2207285737       -2.2943063562      -12.2052972650
 C         1.2159901294       -1.7813989303      -12.0289305759
 O         2.1377579657       -2.5395854164      -12.3175761594
 C         1.6990722031       -0.4706224184      -11.2587685249
 C         3.0643396699       -0.1747806744      -11.5719374156
 C         3.6187267221        0.9597827348      -10.7028915259
 O         2.9156013949        1.5062731694       -9.8203254396
 C         5.1049327143        1.2400922828      -10.8121712915
 C         5.2394478228        2.6018190470      -11.6143705329
 O         5.8882940785        2.4887268367      -12.6354969509
 C         4.7077514500        3.9278757961      -11.0746116175
 C         5.7567341785        5.1691075230      -11.0301555305
 C         5.9004446807        5.8513020672      -12.5064661023
 O         5.3591854779        5.3433683270      -13.4607743516
 C         6.7932149980        7.2043917604      -12.7028139308
 C         7.4654113994        7.3166895360      -14.1167848487
 O         7.2380796249        8.3344254836      -14.7658135954
 C         8.5274728027        6.2938281868      -14.5731551194
 C         8.6126809417        6.2947941288      -16.1313156925
 C         7.2531499838        6.2224630670      -16.9235524273
 O         6.3152807643        5.6982827442      -16.4016199991
 C         7.1061585399        6.9346639713      -18.2993997392
 C         8.2990244576        6.4624750052      -19.1152062202
 O         9.4707718060        6.6626298688      -18.7341478309
 C         8.1882473774        5.9105851882      -20.5728425876
 C         9.1597003640        4.8213246495      -20.8470066372
 C         8.7854228322        3.4478865723      -20.1339688417
 O         7.8313676499        3.3294934320      -19.4317547171
 C         9.8497335970        2.3147730057      -20.2441482264
 C         9.0921481115        1.1857273594      -19.5503680687
 O         8.3184854046        0.4284836710      -20.1478025121
 C         9.5582989814        0.9102798976      -18.0464344941
 C         8.5606197489        0.1893199807      -17.1014707935
 C         7.3158234777        1.0588977976      -16.7459712963
 O         7.4480891052        1.9788194018      -15.9770714689
 C         5.9757446475        0.5987549589      -17.0786563064
 C         5.1086170214        1.8481572605      -17.4460196185
 O         5.0226864963        2.7678046332      -16.6665794936
 C         4.5504855348        2.1129031931      -18.8552702299
 C         5.9077394023       -0.4991688913      -18.2185941499
 C         5.4225521217       -0.0352764083      -15.7641435440
 C        10.0492162350        1.9968699888      -21.7972742551
 C        11.2541894393        2.7322031029      -19.5733386909
 C         5.6841486649        6.5558323870      -18.8749443338
 C         7.1178734334        8.4465610514      -17.9672643714
 C         5.8214967808        8.3707513386      -12.4176707865
 C         7.9634902216        7.2380331225      -11.6731931420
 C         5.6130724545        1.5132994430       -9.3410897514
 C         5.9155346667        0.1135051316      -11.3741920773
 C        -0.6007238225       -2.7788509482      -10.7244253450
 C        -0.2647639426       -3.5316408172      -13.1834950467
 C        -4.9527773026       -4.7864450645      -13.9875035721
 C        -6.4996454117       -4.4505969044      -11.9593574423
 C        -6.9871875390       -4.7262458497       -7.6125291544
 C        -5.3066663750       -4.7023611351       -5.9214235634
 C        -7.2647220870      -10.8756293143       -1.8835912836
 C        -8.7322519208      -10.9906265503       -4.0164709965
 C       -14.1974660915       -9.4286730439       -1.2398517779
 C       -14.5426179950       -9.0488705335       -3.7113032678
 C       -15.1021982057       -2.1637753597       -3.0902829773
 C       -17.0216786002       -1.6264387727       -1.5096142916
 C       -22.1374885746       -4.6517480856       -5.2027072136
 C       -22.6908120670       -3.9644621795       -2.8332827674
 H       -22.8266612309       -7.7629592418       -2.5537491831
 H       -22.7209653190       -7.6758877246       -4.3587142409
 H       -23.7439223036       -6.5010990808       -3.3843724420
 H       -20.3437457006       -2.1894974680       -4.9232591529
 H       -19.6363446402       -3.4950142462       -5.6246386557
 H       -18.2546848253       -1.3539444610       -3.9798400109
 H       -17.7613713511       -2.3135966945       -5.4017170342
 H       -13.9957518565       -4.4395844918       -1.0998093701
 H       -14.6567979331       -4.9344716271       -2.5679931360
 H       -16.0131321996       -6.2836678412       -0.2131603322
 H       -14.3045891874       -6.5788506693       -0.3015988623
 H       -11.6730577263       -8.6382091491       -1.1278036967
 H       -10.9154138674       -7.0580334492       -1.4928567356
 H        -9.8684959283       -8.0023590233       -3.5724699105
 H       -11.1670859898       -9.1703679470       -3.6239090838
 H        -6.8962496339       -9.3728552912       -5.2376344841
 H        -5.5225880437       -9.2480984484       -4.1627037797
 H        -5.1658409954       -7.2315592682       -4.8678891551
 H        -6.6559231053       -6.6513372578       -4.1222772087
 H        -6.1126398810       -5.9011460623       -9.6636833674
 H        -4.9002151242       -7.0267752512       -9.9566753867
 H        -3.1726093899       -5.1599948276       -9.5856588804
 H        -4.5744832431       -4.1121790158       -9.9507794388
 H        -3.3208949824       -2.5437281290      -14.0500080965
 H        -2.6338489612       -3.3678592205      -12.7268416200
 H        -2.9506077529       -0.7079524949      -11.7619053346
 H        -2.8886627762       -0.3013860208      -13.4583656765
 H         1.5953179998       -0.4746148741      -10.1991436876
 H         1.0365879773        0.3883885216      -11.5651006275
 H         3.2811532865       -0.0335373083      -12.6647912860
 H         3.6022346456       -1.1526759527      -11.4016983347
 H         4.4424237732        3.8254568445      -10.0348116739
 H         3.9596446297        4.2275540933      -11.7167585263
 H         6.6850997256        4.8028703560      -10.6353829515
 H         5.3260648627        5.8901886024      -10.3557097866
 H         8.2254894820        5.2739214347      -14.1732755381
 H         9.4814477784        6.5717575898      -14.1281577716
 H         9.2280314030        5.4841232841      -16.4566827175
 H         9.1559326360        7.2173111602      -16.6522513010
 H         8.4195919554        6.8057333039      -21.1272451095
 H         7.2105650390        5.4265749347      -20.7839671629
 H        10.1039949556        4.9785124337      -20.3637786387
 H         9.3526275876        4.6785802718      -21.9727606563
 H         9.5469869287        1.8121311994      -17.3912203431
 H        10.4560613456        0.2902670406      -18.1626502127
 H         9.0467236721        0.1001616968      -16.1488267829
 H         8.3038215391       -0.8362460829      -17.4022331840
 H         5.2516956642        2.1749898671      -19.6786991332
 H         3.9845037811        2.9528844329      -18.8542883722
 H         3.9414624554        1.2430312277      -19.0705745931
 H         4.8599167896       -0.8006636443      -18.4720031348
 H         6.3772238487       -1.4294370777      -17.8320922866
 H         6.4049966533       -0.1968619193      -19.1544416182
 H         4.4754781345       -0.6103416508      -16.1317313836
 H         5.2612863688        0.7836353548      -15.0349853208
 H         6.1477741306       -0.7765473623      -15.3714486587
 H        10.8675660165        1.3158862823      -21.9055559400
 H        10.2606542158        2.8001441588      -22.4045045671
 H         9.2039131897        1.5316680004      -22.1910461033
 H        11.7644792272        1.7606017071      -19.3815439873
 H        11.2479287448        3.3774967985      -18.6430948815
 H        11.9284062692        3.2741505014      -20.2725283758
 H         4.9988578192        6.7471758172      -18.0240799272
 H         5.5551595051        5.5080143894      -19.1287426414
 H         5.3716720842        7.0542246868      -19.7428377375
 H         7.8890599734        8.6746247773      -17.2897105688
 H         6.1243048232        8.7918240519      -17.5260116488
 H         7.2756535208        9.1348060794      -18.8469224031
 H         6.2961576464        9.3814068484      -12.6073697779
 H         5.5615255972        8.3084965893      -11.3798949834
 H         5.0537957326        8.3258641473      -13.1667026167
 H         7.5779718121        6.8955097351      -10.7124708658
 H         8.3816591469        8.1473742435      -11.4521004712
 H         8.8036208605        6.6375237004      -11.9485439428
 H         6.5423640418        2.0889376522       -9.2560388303
 H         5.6866289520        0.5311964326       -8.7886485992
 H         4.9171337671        2.2017980455       -8.8373699044
 H         5.5964952086       -0.9050368123      -10.9148197796
 H         7.0355500638        0.0818323108      -11.4070376949
 H         5.6686732577        0.0741249428      -12.4553106123
 H        -0.8011917199       -1.9194201694      -10.1349304649
 H         0.1996237332       -3.3747948969      -10.3318508036
 H        -1.5583886925       -3.2273538904      -10.7120100663
 H        -1.1086500290       -4.1553036803      -12.8754399932
 H         0.6685231074       -4.0976493523      -13.0792187209
 H        -0.2873518724       -3.2622451901      -14.2944741381
 H        -5.7103606944       -4.3535135658      -14.6224330001
 H        -4.9786547082       -5.8299450094      -14.1448222887
 H        -3.9225177361       -4.4596074402      -14.2507641072
 H        -7.0773221542       -3.5816025796      -12.2460697283
 H        -6.4416957602       -4.2900821355      -10.8928433881
 H        -7.0036625786       -5.3545201000      -12.2322800836
 H        -7.5195336940       -5.2630297177       -8.4120782316
 H        -6.5525336433       -3.9388667637       -8.0869170334
 H        -7.7146494490       -4.4976922424       -6.8718727713
 H        -5.9481814766       -4.1999275966       -5.2235373179
 H        -4.8882217199       -3.8817147753       -6.4921098958
 H        -4.4654660351       -5.0746563963       -5.2924705076
 H        -7.7715727626      -11.6930097107       -1.4774575375
 H        -7.1311318194      -10.1874472955       -1.0484460195
 H        -6.3694247933      -11.1541887995       -2.4752924606
 H        -8.8941322578      -12.0253422716       -3.7278273353
 H        -7.9339991454      -10.9095990699       -4.7463983471
 H        -9.6810527475      -10.6598943418       -4.3514967480
 H       -14.0564335240       -9.0194673162       -0.2595357228
 H       -13.4399576908      -10.1813364444       -1.6121227839
 H       -15.1367985368       -9.8721668284       -1.3536429952
 H       -14.7120029938       -8.3248714314       -4.4778559545
 H       -15.4855965604       -9.6560125289       -3.5701121948
 H       -13.7458941725       -9.7301896060       -4.0587830393
 H       -14.4041689726       -3.0044203876       -3.4811372510
 H       -14.4758424990       -1.5176154075       -2.4435346245
 H       -15.2744986877       -1.5958330885       -3.9745578405
 H       -17.9669986363       -2.0516315008       -1.0731732444
 H       -17.3459599021       -0.8057732072       -2.2013912670
 H       -16.4010850990       -1.3991088955       -0.6846325828
 H       -21.5460318690       -5.3205425992       -5.7875045917
 H       -22.2004626062       -3.7649703494       -5.7373495465
 H       -23.2109178111       -5.1218212950       -5.1038615626
 H       -22.6306130091       -2.8345548406       -2.8347095843
 H       -22.4738320997       -4.3169565447       -1.8438810831
 H       -23.6883026055       -4.1970782112       -3.1179234038
 Na      -18.3314627645       -6.0206475426       -2.2510735348
 Na        6.0631117025        3.6802468160      -14.9818481035
