232

 C        11.3337175295       -1.2644513992      -20.7895317329
 C         9.8050516560       -1.3258514259      -20.6299860769
 O         9.2255801371       -2.2705184269      -21.1314236144
 C         8.9257685062       -0.1181176550      -20.0098998321
 C         7.8495874247       -0.9537620413      -19.3034213888
 O         7.7654614077       -1.0108602312      -18.0676956925
 C         6.8441283475       -1.7544099188      -20.1647472380
 C         6.8618560728       -3.2944307983      -19.8124204653
 C         5.6489791166       -3.9197465613      -19.0947500659
 O         4.9836541266       -3.1897376899      -18.3127547846
 C         5.4891051253       -5.4657658917      -18.9714308744
 C         6.1389496338       -5.9359158773      -17.6090905093
 O         7.3061333313       -6.1615691261      -17.4991786305
 C         5.2413301897       -5.9186098232      -16.3133663309
 C         5.9979078652       -5.4615048164      -15.0449361903
 C         6.5211978238       -3.9860761258      -14.9316423000
 O         6.7109267565       -3.4304954656      -15.9956080332
 C         6.5507900015       -3.3576152000      -13.5327246638
 C         6.5695512797       -1.6904764590      -13.7076151613
 O         6.5679250215       -1.1316237976      -14.7692084997
 C         6.5977227186       -1.0186093984      -12.3193055089
 C         5.9845352889        0.3934339116      -12.4348464073
 C         4.4492082000        0.2529308161      -12.5181666446
 O         3.8767387921       -0.7708937674      -12.9481801970
 C         3.6496745714        1.3806963171      -11.7565363984
 C         3.8096973868        0.5996694631      -10.3572556629
 O         4.8416525950        0.6753667513       -9.7256076113
 C         2.6055729388       -0.3403573888      -10.0001855503
 C         2.4300298723       -0.2857085601       -8.4220206786
 C         1.6333894170       -1.4462244153       -7.9683682771
 O         1.0709718475       -2.2371341591       -8.6520009175
 C         1.5728037776       -1.7037737060       -6.4084622082
 C         0.1835311900       -0.9365791463       -5.9165434933
 O         0.0032881074        0.2453659989       -6.0555700037
 C        -0.7152619452       -1.8088841102       -5.0650186483
 C        -1.9631628382       -0.9797072594       -4.5126690723
 C        -3.2127501152       -0.7363737315       -5.3782598710
 O        -3.2851680254       -1.2890084163       -6.4522144567
 C        -4.4389125110        0.1545120262       -4.7935345723
 C        -5.7418583316       -0.1503379326       -5.6012623826
 O        -6.6137064457       -0.8270127379       -5.0632644080
 C        -5.8228179551        0.5333788136       -7.0311850174
 C        -6.7221266115       -0.2609254904       -8.0112943516
 C        -7.2650363078        0.5354044122       -9.2084570030
 O        -8.0357522287        1.5298716642       -9.0062526767
 C        -6.9689466137        0.1938841488      -10.6537119291
 C        -8.3260952317       -0.4844633440      -11.2005765547
 O        -9.1398682346        0.2214758143      -11.7327208006
 C        -8.6261195753       -2.0278328312      -11.2449558722
 C       -10.1355016173       -2.3645700983      -10.9299205194
 C       -10.4685184766       -3.3931855972      -11.9761751349
 O        -9.8733214902       -3.5378732297      -13.0347076496
 C       -11.7023976957       -4.3145778934      -11.6823787989
 C       -11.2416118878       -5.1238372984      -10.3781470457
 O       -10.1744517322       -5.7214587645      -10.3663082438
 C       -11.9788350067       -4.6858237514       -9.0106222442
 C       -11.3880516684       -5.2983457923       -7.7695160072
 C       -10.2894390727       -4.5510017354       -7.0763871055
 O       -10.1281305552       -3.3686278423       -7.1874896414
 C        -9.2756724823       -5.2301128925       -5.9681605511
 C        -9.4405232459       -4.5207623563       -4.6727295334
 O        -8.9141420558       -3.4478926521       -4.4858914145
 C       -10.1108250177       -5.2261674048       -3.5650575304
 C       -11.1324365234       -4.4154187228       -2.7577190459
 C       -12.1770687600       -3.9919939132       -3.8730926093
 O       -11.9025148240       -4.1512215991       -5.0584437674
 C       -13.4867179717       -3.2718034980       -3.3352326143
 C       -12.9741070935       -1.7786658329       -3.0363480645
 O       -12.3819753257       -1.5826644023       -1.9981246339
 C       -13.3282842757       -0.6713550867       -4.0327903407
 C       -12.4776595583        0.5685626256       -3.7156349560
 C       -11.0530265266        0.3804799482       -4.1884480054
 O       -10.4845623309       -0.6380503187       -4.1175425419
 C       -10.3966992380        1.5381580492       -5.0342197321
 C       -10.8764875258        1.2337800564       -6.5114745634
 O       -10.5041327063        0.2049670632       -7.0159419765
 C       -11.6511601301        2.2141202098       -7.4286293051
 C       -10.8829141424        2.7813036979       -8.6583782024
 C       -10.1719317086        4.1029796965       -8.2857199586
 O        -9.6726837228        4.3152799510       -7.2046005627
 C       -10.0093452087        5.0567318396       -9.5569763346
 C        -8.7871494626        6.1322920938       -9.3463774566
 O        -7.7212210606        5.9801985507       -9.8277214902
 C        -8.9658050514        7.2022861393       -8.3548829559
 C        -9.6087509724        4.2902423262      -10.8773738754
 C       -11.3602016835        5.6361213699       -9.7225439199
 C       -10.7553624651        2.9926313032       -4.5930620237
 C        -8.8274979136        1.2993235910       -5.1208089475
 C       -14.4224509509       -3.2004209006       -4.4909808407
 C       -14.0775750118       -3.8627783725       -2.0216727252
 C        -9.4526576981       -6.7756700498       -5.8602937452
 C        -7.8456999538       -4.9314981889       -6.3917915887
 C       -12.9836757767       -3.3952296380      -11.6437934577
 C       -11.8260789455       -5.3548566014      -12.7996244440
 C        -6.7719190657        1.5843802545      -11.3527503834
 C        -5.8450323425       -0.7935729427      -10.8693914484
 C        -4.6825874706       -0.2071919648       -3.3327646724
 C        -3.9443244626        1.6253106379       -4.8541877077
 C         1.5164306780       -3.1900954035       -6.2498090964
 C         2.7339259363       -1.0721429295       -5.5111969157
 C         4.2912510389        2.7213152320      -11.8103461278
 C         2.2880764848        1.4371847015      -12.3433806887
 C         5.2339625423       -3.6864716510      -12.7601314495
 C         7.6575242254       -4.0132988378      -12.6204397747
 C         3.9637716604       -5.7973987502      -18.8917666676
 C         6.1071106039       -6.2931108919      -20.0987453736
 C         9.8866889519        0.4772158569      -18.9960271652
 C         8.4413029168        0.7718084775      -21.1593473931
 H        11.9250406604       -1.4170497775      -19.8873825922
 H        11.6089830855       -0.4013032531      -21.3151685281
 H        11.7316494756       -2.0732876172      -21.5049405600
 H         7.0087139344       -1.6379766981      -21.2287347797
 H         5.8416225512       -1.3132775864      -20.0235111781
 H         7.6477237231       -3.4168196230      -19.1090558700
 H         7.2282559185       -3.8148589708      -20.7280084849
 H         4.8253225810       -6.8908036633      -16.1465275782
 H         4.4261404057       -5.1934981871      -16.5080668419
 H         6.8152592605       -6.0086640459      -14.8489382834
 H         5.3472511705       -5.4916920669      -14.0979427158
 H         7.6678095222       -1.1155623408      -12.0748615524
 H         5.9684574652       -1.6710915417      -11.6813540940
 H         6.4295793075        1.0055797243      -13.2694417611
 H         6.0945975180        0.9116903768      -11.4857057341
 H         2.8528225858       -1.4020254007      -10.0108385004
 H         1.7184644496       -0.1726348200      -10.6189657220
 H         2.0327407875        0.6615492646       -8.0474338919
 H         3.4162339800       -0.5786328148       -8.0938279596
 H        -0.1586378908       -2.2683233403       -4.2079996370
 H        -1.1672605307       -2.6059179128       -5.7057983257
 H        -1.6025150911       -0.0944521361       -4.1286333241
 H        -2.4219911516       -1.4391558618       -3.6143854648
 H        -4.8368072654        0.3999133283       -7.3658648212
 H        -5.8312615277        1.6015769756       -7.0509820825
 H        -7.6269978556       -0.5989212221       -7.4219857158
 H        -6.2271502357       -1.2432325211       -8.3457629149
 H        -8.0002149356       -2.6873023938      -10.6491449099
 H        -8.6173272739       -2.1896529272      -12.3356270271
 H       -10.7723053825       -1.4715316206      -10.8697291504
 H       -10.1607338706       -2.7962374978       -9.8879171308
 H       -13.0751137851       -4.9295086324       -9.0225632064
 H       -11.9621362327       -3.5996527021       -9.0334372391
 H       -11.0652646520       -6.3660092953       -7.9704992979
 H       -12.1497503196       -5.4926808528       -7.0232649652
 H        -9.4086246424       -5.5224850364       -2.7996799489
 H       -10.6707230406       -6.1124836340       -3.7732473829
 H       -10.7388458190       -3.5350608931       -2.2796602148
 H       -11.7297882523       -4.9132945243       -1.9558511696
 H       -14.4267420512       -0.5330726774       -3.7108918784
 H       -13.2886995324       -1.0344624675       -5.1447889448
 H       -12.5216051381        0.6686625092       -2.6055788649
 H       -13.0044683178        1.4838459834       -3.9539893698
 H       -11.9370899077        3.0357608839       -6.8291768411
 H       -12.5383624696        1.7134837997       -7.7081746290
 H       -11.5104514186        2.8016012266       -9.5076129099
 H       -10.0719032481        1.9927288010       -8.7395462313
 H        -9.4821309291        7.9937815472       -8.8423407676
 H        -7.9833158853        7.6707064569       -8.2757043242
 H        -9.3959705398        7.0432562016       -7.3596515586
 H       -10.3626138567        3.8255915188      -11.4125741193
 H        -8.8382848521        3.5632999166      -10.5820108620
 H        -9.0395828033        4.9449343512      -11.5639011125
 H       -12.0428993825        4.9651435452      -10.1055488433
 H       -11.4907693137        6.3988555509      -10.4951309146
 H       -11.6408220428        6.1357249233       -8.8338777900
 H       -10.3485374824        3.7609193305       -5.3362981474
 H       -10.4464025605        3.2944518727       -3.6012636524
 H       -11.8764659873        3.1864023650       -4.6640126895
 H        -8.5395802982        0.4310143185       -4.5425696967
 H        -8.1532818790        2.0848182512       -4.7407172807
 H        -8.6098879440        1.0866047275       -6.1012692821
 H       -15.1656893144       -2.3833024252       -4.3151738837
 H       -14.9402743626       -4.1070064982       -4.7706180616
 H       -13.8070683072       -2.7602262153       -5.2993061886
 H       -14.5533420292       -4.8824591818       -2.0752044653
 H       -14.7924533963       -3.1739438641       -1.6372903205
 H       -13.4793540156       -3.8922295435       -1.1134191290
 H        -8.7461170114       -7.4205246295       -6.3775094229
 H       -10.5188974871       -7.1540866371       -5.9386695186
 H        -9.1847361356       -6.9359356362       -4.8295412498
 H        -7.1868197325       -5.7498961617       -5.9617204367
 H        -7.5490432309       -3.9600151915       -6.0332612623
 H        -7.7212933336       -4.9619909100       -7.4639332344
 H       -12.7944335561       -2.5074537371      -11.0969804929
 H       -13.8760269261       -3.8097766407      -11.2877164732
 H       -13.1693981948       -3.1848364911      -12.6962287278
 H       -10.9777676366       -6.0546520795      -12.7422706509
 H       -11.9053792335       -4.7840521294      -13.7063952946
 H       -12.6795483396       -5.9589572342      -12.5825520053
 H        -6.3539870440        1.2933645983      -12.3229883101
 H        -6.0390771902        2.1849011361      -10.8502070924
 H        -7.7803104947        2.0254660802      -11.2920228416
 H        -4.9953605423       -0.5311805686      -10.2372057814
 H        -5.4755115799       -0.7710919400      -11.9300500947
 H        -6.1524380274       -1.7782489914      -10.5476171915
 H        -3.8458105018        0.1731435367       -2.6760749942
 H        -4.7869927185       -1.2883507589       -3.2240824647
 H        -5.6261373987        0.3042645802       -2.9756800041
 H        -3.1108915100        1.6645442870       -4.1206823603
 H        -4.7621214251        2.3600766176       -4.6681044149
 H        -3.4249196213        1.8913477453       -5.8142638672
 H         1.1416448693       -3.3917878234       -5.2996124640
 H         2.5422422573       -3.5747576585       -6.2010893470
 H         1.1424011339       -3.6567694966       -7.1004929541
 H         3.5805493796       -1.7540531793       -5.7359432683
 H         2.4030209732       -1.1574418627       -4.4462448591
 H         2.8595814759        0.0334009189       -5.7223960665
 H         5.2133143391        2.9242029814      -11.1521630260
 H         3.5348437582        3.3722740145      -11.4047909570
 H         4.5529626254        2.9721240105      -12.7853029414
 H         2.0870094248        0.5530363134      -12.9651820417
 H         2.2242736323        2.2721608579      -13.0597114926
 H         1.4783447985        1.5307158747      -11.6445104407
 H         5.2366317092       -3.2080198035      -11.7566603865
 H         5.1969918452       -4.7849036199      -12.5540852692
 H         4.3717375247       -3.1469908889      -13.1255361256
 H         7.7021511083       -5.1069385452      -12.8498141691
 H         7.4646694085       -3.7306093343      -11.6005064467
 H         8.6003864983       -3.6127109811      -12.7534854628
 H         3.4038488552       -5.8639688409      -19.8707409109
 H         3.3930616641       -5.0806536739      -18.3390420919
 H         3.8185714376       -6.8396099302      -18.4342547420
 H         7.1991672986       -6.3078238901      -20.2024305153
 H         5.7067761242       -6.0166328108      -21.0797576190
 H         6.0105619880       -7.3096828079      -19.9123803275
 H        10.6017915972        1.0859527827      -19.6166894060
 H        10.4442339394       -0.2266373300      -18.4033148268
 H         9.2826230821        1.1079889223      -18.3331114599
 H         9.1566867232        0.9547099856      -21.9411505132
 H         8.1318336244        1.7249998898      -20.7583075482
 H         7.6362441399        0.3211341480      -21.6595564445
 Na       -8.8474354016       -1.4025088073       -5.7310687334
 Na        6.0692299510       -1.5852450077      -16.9702984667
