232

 C        11.2861083040       -1.1711781868      -20.5623383156
 C         9.8080977702       -1.4379955735      -20.6970468665
 O         9.2405673746       -2.3538226693      -21.1716230774
 C         8.8050158281       -0.1605151730      -20.1780289696
 C         7.8017887141       -0.8942070920      -19.3151925413
 O         7.6802973523       -0.5589612872      -18.1501875677
 C         6.7208902274       -1.7693188541      -19.8411799084
 C         6.8604553813       -3.2920842005      -19.6699651387
 C         5.6767844715       -3.8644384251      -19.0006347642
 O         4.8549741327       -3.2166079955      -18.4245275727
 C         5.4681828239       -5.3718085493      -19.0323921470
 C         6.0823396433       -5.9480367705      -17.6953158743
 O         7.2559761644       -6.2321610547      -17.6962335824
 C         5.2652506612       -5.8986557777      -16.3595838192
 C         6.1589049287       -5.6782346681      -15.1417244566
 C         6.4908225250       -4.1781798042      -15.0419264831
 O         6.9251893752       -3.6229164182      -16.0151030719
 C         6.2980071894       -3.3586716632      -13.6371540191
 C         6.4791724844       -1.7967494197      -13.7273578317
 O         6.4417939670       -1.1653170896      -14.7496870795
 C         6.9221207372       -0.8445493397      -12.4717260809
 C         6.0651169169        0.3835998928      -12.5000082866
 C         4.5141332813        0.2243256745      -12.6279783522
 O         3.9732493613       -0.7319940136      -13.0847412150
 C         3.5948509272        1.3120056209      -11.7934748677
 C         3.5933205682        0.6036668540      -10.3661560046
 O         4.6734626920        0.6736999627       -9.7799345875
 C         2.3588467630       -0.1067719970       -9.7665099528
 C         2.2812064217       -0.1549414861       -8.1935257071
 C         1.6583055143       -1.5232254921       -7.7753661143
 O         1.2957677665       -2.3028290709       -8.6581349622
 C         1.4649040908       -1.8566684565       -6.2386996865
 C         0.2628108269       -1.0626818795       -5.7557400575
 O         0.1954864211        0.1411587777       -5.9851687873
 C        -0.8908791835       -1.7892389552       -4.8864230909
 C        -2.1383134845       -0.8847349939       -4.3650559168
 C        -3.4022218619       -0.6949130422       -5.3662760717
 O        -3.3871688985       -1.1647797774       -6.4929752611
 C        -4.5828804701        0.1597720120       -4.7355577258
 C        -5.8423834788       -0.1358065845       -5.6764111861
 O        -6.7347172670       -0.8204608005       -5.1718651575
 C        -5.9795507185        0.4471273201       -7.0699303178
 C        -6.8213718563       -0.4054910753       -7.9441678760
 C        -7.2687065899        0.4763196918       -9.1417155239
 O        -7.8644348880        1.4419871857       -8.8928751981
 C        -6.9170637644        0.2171595554      -10.6622620758
 C        -8.2134643064       -0.4902122773      -11.1566498861
 O        -9.0833353553        0.2131297131      -11.6392672583
 C        -8.4809287612       -1.9537039553      -10.9573078641
 C        -9.9730899632       -2.2770450683      -11.0132436938
 C       -10.3922853359       -3.3369982715      -12.0688175025
 O        -9.7805516121       -3.5848967699      -13.1179597130
 C       -11.6435783698       -4.2331832998      -11.5769460293
 C       -11.2104237631       -5.0195613943      -10.2584380735
 O       -10.2697658222       -5.7788967298      -10.2576070128
 C       -11.9586831948       -4.5334469939       -8.9043040186
 C       -11.2772274664       -5.2974954520       -7.7299481653
 C       -10.0774490158       -4.5877958841       -6.9822525426
 O        -9.8232978491       -3.4491552865       -7.3823282643
 C        -9.2035258514       -5.3321316484       -5.9534412092
 C        -9.4976793937       -4.6447189564       -4.5406605005
 O        -9.2970793525       -3.4298988510       -4.4590516535
 C        -9.9500973520       -5.1978235810       -3.2162485032
 C       -11.0063768015       -4.2125680267       -2.6974840186
 C       -12.0685710649       -3.9221855398       -3.8089400480
 O       -11.8180066049       -4.3188018563       -4.9205196317
 C       -13.4487363329       -3.1768885541       -3.4180472142
 C       -12.9034871422       -1.7830592954       -2.9323542620
 O       -12.3418708525       -1.6836185831       -1.8565721810
 C       -13.1381898443       -0.6009647546       -3.9986101152
 C       -12.2367661980        0.6250301678       -3.7772456029
 C       -10.8211519467        0.4644955804       -4.2803881532
 O       -10.3162427072       -0.7027702571       -4.2099522173
 C       -10.1281754736        1.5946123005       -4.9908531571
 C       -10.6128871159        1.2112121737       -6.5400753452
 O       -10.4381799279        0.1043956332       -7.0264619698
 C       -11.5491546138        2.1526863021       -7.3128273514
 C       -11.0608763244        2.7508485661       -8.6929055588
 C       -10.2148860747        4.0650273009       -8.4487775948
 O        -9.5902267023        4.2192720492       -7.3970067515
 C        -9.9616587593        5.0042687385       -9.5962939007
 C        -8.7712667763        5.9603249508       -9.3357970288
 O        -7.6808268404        5.8994135264       -9.8936867151
 C        -9.0217818511        7.1682849375       -8.5289246338
 C        -9.7242595666        4.3142078975      -11.0352503939
 C       -11.2305880645        5.9496454802       -9.7131247244
 C       -10.7323942006        2.9920738043       -4.4626653293
 C        -8.5872982210        1.6793881587       -4.9191501316
 C       -14.3623815944       -3.2449563531       -4.6963855162
 C       -14.0727526305       -4.0546361928       -2.3340610131
 C        -9.6198340383       -6.7985047404       -5.8940136136
 C        -7.7220201385       -5.1977024959       -6.3577441355
 C       -12.9506297511       -3.5075650741      -11.2873159004
 C       -11.9269620587       -5.2674953826      -12.7074600265
 C        -6.5628946643        1.4539682740      -11.5866268470
 C        -5.7289524939       -0.7520943158      -10.6934383953
 C        -4.8949405066       -0.0749592762       -3.2535119827
 C        -4.1467711016        1.6340501070       -5.1393681443
 C         1.4946475776       -3.4169706136       -5.9652571796
 C         2.6575493450       -1.1903470493       -5.4557270647
 C         4.2361874485        2.7437289737      -11.7179795388
 C         2.1058298657        1.4271075839      -12.3155336976
 C         4.9351769590       -3.5247805684      -12.9062563596
 C         7.6664254838       -3.9021839478      -12.9530373626
 C         4.0053787140       -5.7488400481      -19.1468421601
 C         6.1388609746       -6.0762997152      -20.2115073989
 C         9.6241833803        0.8608832385      -19.2458206121
 C         8.1726414445        0.8501225559      -21.2282299409
 H        11.6162350500       -1.4347162697      -19.5339522827
 H        11.6497218059       -0.1681972777      -20.9338319656
 H        11.8376557506       -1.8197637418      -21.1977795874
 H         6.3189831254       -1.4300202557      -20.8062888361
 H         5.8251889346       -1.6569607907      -19.2322923832
 H         7.7214868075       -3.5367252067      -18.9274909297
 H         7.0772182616       -3.7853532394      -20.6222575459
 H         4.9468473419       -6.9593909798      -16.1930517758
 H         4.3804544051       -5.2493408240      -16.4150229897
 H         7.2380897875       -6.1338539505      -15.2126256691
 H         5.6970777571       -5.9306809608      -14.2229255390
 H         7.9361190470       -0.5601169558      -12.7701342189
 H         6.8113790037       -1.3998299668      -11.5607545541
 H         6.3388614029        0.8875661100      -13.4000749620
 H         6.3330993589        1.0118666910      -11.6396396741
 H         2.5894718427       -1.1577125463      -10.0292738825
 H         1.4244687323        0.1413666271      -10.2472333826
 H         1.6819357016        0.7331376332       -7.9700676723
 H         3.3091120304       -0.1673473164       -7.7490536554
 H        -0.4064988631       -2.1049566168       -3.9917470418
 H        -1.3378323160       -2.6668113472       -5.3237373762
 H        -1.8382932498        0.2037989612       -4.1174016479
 H        -2.4588987705       -1.2207064638       -3.3934976173
 H        -5.0768170715        0.8816088840       -7.6126537165
 H        -6.4587802917        1.4624200881       -7.0058558034
 H        -7.7171063712       -0.8593917165       -7.6131162038
 H        -6.2206069696       -1.2182958393       -8.3010024647
 H        -8.0512862190       -2.1410935732       -9.9649052725
 H        -8.0142071518       -2.4182148717      -11.8255925113
 H       -10.3463025943       -1.2451085682      -11.2095078138
 H       -10.3256039141       -2.4722430895      -10.0378958927
 H       -13.0017049644       -4.8029849958       -8.9249954178
 H       -11.9012632651       -3.4241806120       -8.8078450625
 H       -10.9589180603       -6.2387657020       -8.1085979979
 H       -12.0303025045       -5.6401298539       -6.9901409055
 H        -9.2503272905       -5.3399411348       -2.3860049649
 H       -10.3963453776       -6.2221539660       -3.2389665637
 H       -10.5259387191       -3.2712201750       -2.3343926839
 H       -11.6742946512       -4.4648170098       -1.8720506444
 H       -14.1537813513       -0.3615505036       -4.0079671081
 H       -12.8198864684       -0.9533267571       -4.8963772149
 H       -12.2973469061        1.0023677164       -2.7856729161
 H       -12.7506111938        1.4524654989       -4.2648604200
 H       -11.7576781941        3.0502708083       -6.6791565845
 H       -12.4935896784        1.5596226741       -7.4565539455
 H       -12.0735458518        2.9618461240       -9.2084725855
 H       -10.4472868234        2.0815753059       -9.2531222736
 H        -9.4884561904        8.0588661970       -9.0197354802
 H        -8.0943339877        7.5373246957       -8.1427241261
 H        -9.6470798536        6.9312806975       -7.6717395790
 H       -10.6385315438        3.6589499236      -11.2774763785
 H        -8.7791773542        3.8527385071      -11.1449258111
 H        -9.7631874541        5.0531392631      -11.7930008802
 H       -12.1847072563        5.3833943794       -9.8829995129
 H       -11.3196606882        6.6181956057      -10.5421884667
 H       -11.2440325857        6.6451293768       -8.8448894308
 H       -10.4108950087        3.8659769623       -4.9938252445
 H       -10.4047204787        3.1200002378       -3.4072590313
 H       -11.8315420866        3.0794348654       -4.4769044011
 H        -8.1257311105        1.0812368276       -4.1200124898
 H        -8.2360775281        2.6948484719       -4.8036209177
 H        -8.1640393733        1.2967983475       -5.9050087995
 H       -15.2365620459       -2.6065828452       -4.6112751583
 H       -14.7036401818       -4.3171372666       -4.6633750287
 H       -13.8990507317       -2.9561195851       -5.6502712066
 H       -13.7896993915       -5.0750517354       -2.3763956186
 H       -15.1637678532       -4.0220706750       -2.2619921405
 H       -13.8584985129       -3.7376353294       -1.3159226235
 H        -9.8224453999       -7.0201920434       -6.9397116763
 H       -10.5309506372       -6.9157739876       -5.3296912482
 H        -8.8708267323       -7.5168671418       -5.5427720010
 H        -7.0750207981       -5.6223336876       -5.6356444447
 H        -7.4678942928       -4.1114123264       -6.3080989407
 H        -7.5268848411       -5.6872670160       -7.3291259703
 H       -12.7964833845       -2.8019722328      -10.4471076572
 H       -13.7286362540       -4.3195192555      -11.1462078929
 H       -13.3716555112       -2.9751457210      -12.1132889541
 H       -11.1071301418       -5.9041030616      -12.6821979276
 H       -12.0829600932       -4.7094950351      -13.6063462971
 H       -12.7475794712       -5.9147875954      -12.4507563184
 H        -6.3362236478        1.0978668626      -12.5599897399
 H        -5.5682227743        1.8201605147      -11.2349163590
 H        -7.3802920476        2.1127170418      -11.4594404883
 H        -4.7559007671       -0.2798802366      -10.3609953019
 H        -5.6503997708       -1.0760988598      -11.6833038349
 H        -5.8611564651       -1.6345968945      -10.0598048881
 H        -4.0350978750        0.1595253495       -2.6809894311
 H        -5.2848807993       -1.0560929047       -2.9990348043
 H        -5.5989469516        0.6795428992       -3.0466310301
 H        -3.2947425156        2.0297355125       -4.5885857973
 H        -5.0600743471        2.2108737104       -5.0141670032
 H        -3.8097610595        1.7189386830       -6.1453077832
 H         1.1022288685       -3.6582795495       -4.9252527646
 H         2.4944952969       -3.8298266511       -6.0070900775
 H         1.0909579083       -3.8926870561       -6.9214483547
 H         3.5543091378       -1.5238007065       -5.9194445076
 H         2.5507222620       -1.4845757345       -4.4780247319
 H         2.4105446532       -0.1841185952       -5.4181667062
 H         5.2152756702        2.8051198655      -11.2675776060
 H         3.7501765706        3.4691172141      -11.0976907524
 H         4.3737384234        2.9990203366      -12.7949320215
 H         1.4642292416        0.5642495958      -12.2286974663
 H         2.1462720059        1.6200259535      -13.3652374499
 H         1.5525802509        2.1793359763      -11.7346858654
 H         4.9665763257       -3.1127425016      -11.8949895650
 H         4.6363949559       -4.5452190898      -12.9042578150
 H         4.2833232524       -2.8030077344      -13.3471006897
 H         7.8367761189       -4.8861506250      -13.2820868716
 H         7.7023628929       -3.8099632473      -11.8481563329
 H         8.5531986490       -3.3032700071      -13.3085615801
 H         3.8042228150       -6.4000133569      -19.9782715622
 H         3.3678314357       -4.8709121484      -19.2969779331
 H         3.6242769596       -6.3098628704      -18.3874212706
 H         7.1860911213       -6.1824017148      -20.2731771958
 H         5.8381534049       -5.5998511981      -21.1727114980
 H         5.8912151380       -7.1710060998      -20.2401147389
 H        10.4827694975        1.2226530830      -19.7815000073
 H         9.9570638669        0.3350816194      -18.2830089770
 H         8.9205424608        1.6184440091      -18.8548814439
 H         8.9998927520        1.3255895205      -21.8398530654
 H         7.6225138569        1.6852936408      -20.7170636227
 H         7.4274317707        0.3740718599      -21.9874537373
 Na       -8.9238434343       -1.6946563895       -5.7635623774
 Na        5.9826091833       -1.5850533460      -16.9826072111
