232

 C        11.0933162313       -0.9960637288      -20.3848867544
 C         9.6077841278       -1.1730809443      -20.6065616329
 O         9.2638525798       -2.1329201332      -21.2293616819
 C         8.7099538613       -0.0428297905      -20.2682079228
 C         7.5068520517       -0.5139737985      -19.4370146725
 O         7.4286198477       -0.2844449049      -18.2261603279
 C         6.5654371136       -1.6532208488      -19.8980992861
 C         6.8836150897       -3.0356512842      -19.2584853561
 C         5.6331354754       -3.7716493438      -18.8625666788
 O         4.7555039741       -3.3155892197      -18.1100330886
 C         5.5421420058       -5.2711085249      -19.2176306185
 C         6.0615988515       -5.8988454133      -17.8226114862
 O         7.1535338608       -6.3882050414      -17.8028595853
 C         5.2041560116       -5.8502954017      -16.4838539369
 C         6.1098164914       -5.6019652046      -15.3067003312
 C         6.5492881764       -4.1306754842      -15.3234831916
 O         7.0666286615       -3.5403766878      -16.2487163972
 C         6.3437234385       -3.3390564158      -13.8775101976
 C         6.3157310838       -1.7401214519      -13.9725049875
 O         5.9842542586       -1.1093517345      -14.9490109192
 C         6.6754794813       -1.0450957585      -12.5836357130
 C         6.0456756639        0.3733247282      -12.4716425646
 C         4.5417623524        0.2145253969      -12.5175492487
 O         4.0091718969       -0.5656039300      -13.2540094011
 C         3.5970894582        1.0806999904      -11.6420646812
 C         3.3431471518        0.6221972409      -10.1251878241
 O         4.3292749879        0.7316026123       -9.4327721324
 C         1.9174859489        0.2559909256       -9.4700049471
 C         2.1812183846       -0.2638960209       -7.9187423359
 C         1.6097837402       -1.6156661461       -7.5250359037
 O         1.5443074462       -2.5066103970       -8.3614867954
 C         1.3321798412       -1.8144876532       -6.0053910220
 C         0.1478250333       -0.9793189652       -5.6545737395
 O         0.1204437460        0.2481405338       -5.7993576278
 C        -1.1100217433       -1.6707263253       -5.0730095387
 C        -2.1922123504       -0.7577830679       -4.4343940784
 C        -3.4549849689       -0.6486268200       -5.3196163627
 O        -3.4896204873       -1.2046631373       -6.4046093747
 C        -4.6247742415        0.1062384210       -4.8071126731
 C        -5.8331021573       -0.2785733635       -5.7350374012
 O        -6.6227646053       -1.0827023293       -5.2782120527
 C        -5.7638970513        0.2006892070       -7.2153814469
 C        -6.8663650020       -0.3432766585       -8.0438317305
 C        -7.0842109336        0.4886496509       -9.2830836506
 O        -7.6197697695        1.5401570200       -9.1678059447
 C        -6.7411323040        0.0954371358      -10.7240793915
 C        -8.1944821044       -0.4107510750      -11.2365531894
 O        -8.9487835737        0.4215233168      -11.6743952361
 C        -8.5383591364       -1.8911023307      -11.0510057944
 C       -10.0793219285       -2.1450011374      -11.0761993895
 C       -10.3770440970       -3.3702043559      -11.9341128850
 O        -9.6917503354       -3.6023404399      -12.9395279943
 C       -11.6205925473       -4.2139652653      -11.4307747195
 C       -11.1929663848       -4.9703392216      -10.1081910829
 O       -10.4559363799       -5.9198880158      -10.1866568606
 C       -11.6717576759       -4.5378200863       -8.7641644204
 C       -11.1841509489       -5.4369165272       -7.6702631759
 C        -9.8603805952       -4.7559513900       -7.0109016127
 O        -9.5150063974       -3.6285059430       -7.4442596419
 C        -9.0621590052       -5.4734452649       -5.7788331969
 C        -9.1941916339       -4.5656431811       -4.4300715939
 O        -8.9390026262       -3.3529976966       -4.4232870131
 C        -9.7748417941       -5.2495070887       -3.1605755846
 C       -11.0143178275       -4.4859913775       -2.6217819672
 C       -12.0102684195       -4.1197730609       -3.7359199161
 O       -11.8925977837       -4.6084724784       -4.8660519018
 C       -13.3389384590       -3.3167677427       -3.4451675682
 C       -12.9969042815       -1.8725169208       -2.9420029681
 O       -12.5542587569       -1.7021250693       -1.8315345001
 C       -12.9999720851       -0.6868925156       -3.9199712683
 C       -12.0268554618        0.5443982981       -3.3660831632
 C       -10.7647974945        0.5580671833       -4.1382737037
 O       -10.1182875365       -0.5038576562       -4.2470988289
 C       -10.1593972689        1.8010123087       -5.0213443963
 C       -10.4015297931        1.4520541335       -6.5547222728
 O        -9.6799389914        0.6141183906       -7.1626210204
 C       -11.4951990696        2.1453972879       -7.3576702444
 C       -10.8491936446        2.7117068936       -8.6415450714
 C       -10.1553459725        4.0119193625       -8.5194801793
 O        -9.5651870868        4.3147927118       -7.4952387284
 C       -10.0394934562        4.9629266669       -9.7263976717
 C        -8.7604704078        5.7783185680       -9.4057222586
 O        -7.7278960469        5.4672198906       -9.9940052278
 C        -8.7471578815        7.0093121809       -8.4597280880
 C        -9.8191153420        4.2197369688      -11.1185198878
 C       -11.4233535322        5.8383664962       -9.6840414811
 C       -10.6943791718        3.1470539124       -4.6243002026
 C        -8.6443720384        1.6725281755       -4.7391784715
 C       -14.1910586520       -3.3570639381       -4.7126170233
 C       -14.2201643547       -3.7722253637       -2.2903662760
 C        -9.6456930202       -6.8483967572       -5.6152781333
 C        -7.4865309955       -5.6035868541       -5.9332053489
 C       -12.8018977467       -3.2219682606      -11.3377050495
 C       -11.9789548102       -5.3382211374      -12.4007895991
 C        -6.3389711785        1.5245762681      -11.4773580064
 C        -5.5863966908       -0.8980131392      -10.8458642560
 C        -4.8715827899        0.0630717390       -3.2385147984
 C        -4.4092579978        1.5589655626       -5.1299207258
 C         1.0827836826       -3.4000170456       -5.8165302360
 C         2.5330173851       -1.3723270224       -5.2287938859
 C         4.1341824227        2.5604197505      -11.5848423739
 C         2.2178757846        1.0490555101      -12.3909207572
 C         4.9219040492       -3.7136711229      -13.2568619723
 C         7.5291499018       -3.7525843346      -12.9259286626
 C         4.0566505643       -5.7152922382      -19.3303731374
 C         6.2523415338       -5.7837244538      -20.4656334932
 C         9.3814894399        1.1481172390      -19.5997516833
 C         8.0824054260        0.4382181893      -21.5748535060
 H        11.3014712384       -0.7876539330      -19.3290636980
 H        11.4314403308       -0.1618606958      -21.0839843092
 H        11.7098824524       -1.7827872274      -20.6508790972
 H         6.4032168147       -1.7534200447      -20.9649540439
 H         5.5346904177       -1.3734970059      -19.6541787298
 H         7.3885985421       -2.8070334258      -18.2863349735
 H         7.4457638800       -3.5756272485      -19.9415465368
 H         4.8752230065       -6.8890642806      -16.2083132015
 H         4.3772485385       -5.2569311513      -16.6763051332
 H         7.0868911072       -6.1209498459      -15.5308316681
 H         5.7979914358       -5.8746031052      -14.3976490424
 H         7.7657203931       -0.8378444349      -12.6342153057
 H         6.3166716129       -1.7201905849      -11.8099493345
 H         6.3557705496        1.0309057110      -13.2918665146
 H         6.4556291600        0.7339332451      -11.4990616672
 H         1.4875293333       -0.5161301978      -10.0697505354
 H         1.2834143606        1.2111289981       -9.6086781635
 H         1.9082337943        0.5167880755       -7.2166328852
 H         3.2964633990       -0.4246008162       -7.8506482683
 H        -0.7926299553       -2.4135466936       -4.2555122148
 H        -1.5040701265       -2.2338611920       -5.9063053313
 H        -1.7987784330        0.2541881953       -4.3120454921
 H        -2.4069787320       -1.0141998665       -3.4528733340
 H        -4.7999784501       -0.1147781438       -7.5387715716
 H        -5.6474674222        1.1968361946       -7.4872781439
 H        -7.8004027097       -0.2754928058       -7.5004111818
 H        -6.8083956087       -1.3766086294       -8.3291875580
 H        -8.0986185467       -2.2283769579      -10.0901989524
 H        -8.1750963079       -2.3463228643      -11.9608568581
 H       -10.6022028382       -1.3225962690      -11.5477971520
 H       -10.4744664340       -2.0767854330       -9.9944091430
 H       -12.7250051888       -4.3974808712       -8.7398104929
 H       -11.1000494843       -3.5559579495       -8.6187632017
 H       -10.9267914801       -6.4698749851       -8.0213066423
 H       -11.8775718680       -5.6332332615       -6.8373390099
 H        -9.0373172490       -5.5143465139       -2.4152815917
 H       -10.2315575110       -6.1957170148       -3.2478074147
 H       -11.0739214640       -3.5463897931       -1.9669864683
 H       -11.6607803337       -5.1196498818       -2.0669340194
 H       -14.0490483860       -0.2582346890       -3.8801323426
 H       -12.6366426771       -0.9846751131       -4.9433136172
 H       -11.9759263662        0.5345817622       -2.2563675637
 H       -12.5745989879        1.4877410312       -3.4665067796
 H       -12.0056579556        2.9081398413       -6.7952851877
 H       -12.1639841230        1.4016412563       -7.6289802033
 H       -11.6228410186        2.6848335810       -9.4356779377
 H       -10.0204054938        2.0289649277       -9.0113774627
 H        -9.4169245910        7.7856231027       -8.8863552011
 H        -7.7280111725        7.4083144220       -8.4203658649
 H        -9.1206276647        6.8336548037       -7.4725342683
 H       -10.6990245570        3.6062473768      -11.4185089534
 H        -8.8525591969        3.7598392041      -11.2440677913
 H        -9.8321583563        5.0248015100      -11.8207050688
 H       -12.2515134124        5.2748235798      -10.2202764855
 H       -11.3440970950        6.8065116136      -10.1357368206
 H       -11.8953871712        6.0381695146       -8.7180515131
 H       -10.3472678125        4.0084834350       -5.2110655035
 H       -10.2697304441        3.4158275736       -3.5890451014
 H       -11.7904909764        3.1735253135       -4.5490639967
 H        -8.4122393585        2.2942971656       -3.9234586162
 H        -8.1260309931        2.0185197810       -5.5975072032
 H        -8.1957452828        0.6672659240       -4.4925262054
 H       -15.0649287224       -2.7100880266       -4.7162678117
 H       -14.3497594215       -4.4007120693       -5.0047288185
 H       -13.5858973207       -3.0363342920       -5.5443759056
 H       -14.6844911726       -4.7364922222       -2.3604850493
 H       -15.1331363465       -3.1443003808       -2.0315455592
 H       -13.6398018862       -3.9029473977       -1.3754365389
 H        -9.3649813844       -7.4191986080       -6.5117898348
 H       -10.6869121455       -6.8096283817       -5.4735073024
 H        -9.1750187667       -7.2287317845       -4.6466090950
 H        -6.9894824568       -5.9673515777       -5.0413968813
 H        -6.9623092616       -4.6444188271       -5.9753450462
 H        -7.3502920601       -6.3120804047       -6.7216450771
 H       -12.4994384461       -2.3977970833      -10.7413080637
 H       -13.7256453231       -3.6813181740      -11.0319344529
 H       -12.9722631492       -2.7588947204      -12.2707488854
 H       -11.1225819356       -6.0060232548      -12.4546315310
 H       -12.3189823667       -4.8769148966      -13.3429556066
 H       -12.8105806804       -5.9126187410      -11.9259722256
 H        -6.3517400167        1.2992706610      -12.5600264473
 H        -5.3120577121        1.7645224181      -11.1944548194
 H        -7.1376306690        2.2028368640      -11.2103465597
 H        -4.9281306492       -0.6224020606      -10.0374590537
 H        -5.1508930349       -0.9334443885      -11.8394860519
 H        -5.8798560877       -1.9428542167      -10.5854507214
 H        -4.0101644244        0.4978057526       -2.7016835239
 H        -5.0296553188       -1.0239677536       -2.9233071002
 H        -5.7972132924        0.6616163521       -3.0891590880
 H        -3.5680202205        1.9119521515       -4.4895449957
 H        -5.2959939463        2.1662519318       -4.8807822558
 H        -4.0747881044        1.7351179759       -6.1912658402
 H         1.2955102662       -3.7574994409       -4.8488718889
 H         1.7212448267       -3.8876629699       -6.5122481193
 H         0.0705483851       -3.6224577025       -6.1197154058
 H         3.3228982920       -2.0702464658       -5.6048767574
 H         2.2846433718       -1.6008331046       -4.1671500405
 H         2.5986160395       -0.2770960104       -5.3803145074
 H         4.8858408798        2.6083120356      -10.8912404101
 H         3.4063204967        3.3015398937      -11.1619434557
 H         4.4915110051        2.9136868117      -12.5549116972
 H         1.8929397569        0.0194982963      -12.4611616271
 H         2.2446559307        1.4545642889      -13.4017232075
 H         1.4440419455        1.4542457201      -11.7341436157
 H         4.5952824364       -2.9309916591      -12.5763826071
 H         5.1141892641       -4.6466725398      -12.6713363030
 H         4.1527912371       -3.8981966646      -14.0910252936
 H         7.3552116226       -4.6724994025      -12.4060118585
 H         7.7453312391       -3.0656117039      -12.1374065482
 H         8.4383887669       -3.8999535652      -13.5912266178
 H         3.9588793732       -6.6697735130      -19.8217194306
 H         3.2726109760       -5.0153762502      -19.8363905223
 H         3.6393833367       -5.9578921387      -18.3424038903
 H         7.3292625714       -5.6263306855      -20.5841030354
 H         5.8394605153       -5.3572605696      -21.3445084366
 H         6.0224693224       -6.8714822243      -20.6616863726
 H         9.9875138780        1.6130718056      -20.3358918110
 H         9.9669621380        0.7630386786      -18.7495470179
 H         8.6201161131        1.7814890086      -19.1649895014
 H         8.6126471386        1.2707093897      -21.9936893481
 H         7.1346036896        0.7712951734      -21.2873677927
 H         7.8649013850       -0.3655874426      -22.2656703288
 Na       -8.9552522447       -1.5209527485       -6.1077552354
 Na        5.9296499706       -1.7391108025      -17.2429284364
