232

 C        10.9501396566       -0.8487598400      -20.1996789772
 C         9.5644525527       -1.0849897584      -20.6257946005
 O         9.2298745107       -2.2266955719      -21.0158050658
 C         8.5261037897        0.1362368930      -20.6089748566
 C         7.4237015749       -0.5521526406      -19.6118234358
 O         7.3762603742       -0.2272646638      -18.4218319969
 C         6.5557007292       -1.6790072693      -20.0465785378
 C         6.9497736405       -3.0486794589      -19.3551324476
 C         5.5840942147       -3.8099529358      -18.9778153289
 O         4.7758723309       -3.2297088459      -18.2552270034
 C         5.4693010798       -5.3681432877      -19.2305376412
 C         6.1393617513       -6.0473015871      -17.9090071068
 O         7.2193327590       -6.5610878514      -18.0286930687
 C         5.2636046691       -5.8511011483      -16.6384355335
 C         6.1660589309       -5.5493802711      -15.4411843094
 C         6.5737147590       -3.9956303895      -15.2862287362
 O         7.1398841533       -3.4202746338      -16.2225688555
 C         6.3195905075       -3.4282548711      -13.9213514278
 C         6.2986875905       -1.7878982277      -13.9570311778
 O         6.0472063603       -1.0840174016      -14.9401521490
 C         6.6437532978       -0.9776986996      -12.6265760737
 C         5.7889801878        0.2777164484      -12.2723265144
 C         4.2539914694        0.1250003491      -12.3482333347
 O         3.7614185294       -0.8087753709      -13.0080247894
 C         3.3443804231        1.0501797744      -11.5491525550
 C         3.4024593459        0.6069216370       -9.9966347429
 O         4.4084690671        0.5981777099       -9.3466860425
 C         2.0185776452        0.0256030144       -9.3687804997
 C         2.0856616259       -0.1451263421       -7.9353644727
 C         1.7478760453       -1.5884755098       -7.5619524687
 O         1.5711660743       -2.3882478594       -8.4548839112
 C         1.3989471298       -1.8917555852       -6.0435081477
 C         0.0582679384       -0.9128054942       -5.5597252070
 O         0.1874542244        0.2944483224       -5.6793410281
 C        -1.1258741269       -1.5871362233       -4.8956550259
 C        -2.1620595565       -0.6410015336       -4.4067213442
 C        -3.3579273700       -0.6683719448       -5.3054957083
 O        -3.4125781284       -1.3995541461       -6.2733695541
 C        -4.6322986828        0.1328497771       -4.9798802974
 C        -5.8430458871       -0.2984547767       -5.8368692092
 O        -6.6434787882       -1.0552661660       -5.3197096731
 C        -5.8753607316        0.2457665715       -7.2849492772
 C        -6.7606903078       -0.4373043210       -8.2823096932
 C        -7.1093093789        0.6025824886       -9.3979763372
 O        -7.4644798508        1.7710401048       -9.0894771754
 C        -6.7835580362        0.1810494165      -10.8065312246
 C        -8.0922355025       -0.2456050851      -11.4285550577
 O        -8.8901663467        0.5655361886      -11.8272761109
 C        -8.4054384931       -1.8190950182      -11.3475226305
 C        -9.9356127090       -2.0634558296      -11.2093015690
 C       -10.3894382711       -3.3890893830      -11.9119905971
 O        -9.7123633635       -3.8522214700      -12.7588087595
 C       -11.6322850339       -4.2091003244      -11.4126303466
 C       -11.1802316870       -5.0052570823      -10.1614777441
 O       -10.4640039660       -5.9739452180      -10.2497844959
 C       -11.6067363526       -4.5046372219       -8.7475523633
 C       -10.9395831775       -5.3185023624       -7.5537646452
 C        -9.7102585554       -4.6266311234       -6.8602761552
 O        -9.1265515390       -3.5996071515       -7.0577450046
 C        -9.0790802249       -5.5425035736       -5.6456559780
 C        -9.2844649647       -4.6182717350       -4.3641342943
 O        -8.9139186946       -3.4832468827       -4.5564003250
 C        -9.7781512378       -5.0466272964       -3.0151708793
 C       -11.0544194237       -4.3459032745       -2.4830735811
 C       -12.1421850992       -4.1915089869       -3.6568304469
 O       -11.8854211287       -4.6430680034       -4.7519588244
 C       -13.3505545377       -3.2882553369       -3.4189892666
 C       -12.8571019060       -1.9045331834       -2.9072066933
 O       -12.4098261500       -1.6936662708       -1.7971009796
 C       -12.9389191586       -0.6992986222       -3.8070981865
 C       -12.0239640506        0.5027999809       -3.5258253836
 C       -10.6186234606        0.4762237818       -4.2480500195
 O       -10.2013623703       -0.6447654630       -4.4317833652
 C       -10.1207402180        1.8248798155       -4.9934730730
 C       -10.2404175445        1.4508687677       -6.5123521469
 O        -9.5302691767        0.5824956024       -6.9491692790
 C       -11.2712199079        2.1220989404       -7.3941960713
 C       -10.8333484387        2.6142334722       -8.7485877132
 C       -10.1384854119        3.9271475549       -8.4993352691
 O        -9.8186168013        4.2137367868       -7.3577283006
 C        -9.9913081401        4.8625036888       -9.7491319083
 C        -8.6083710020        5.7043927090       -9.4951991350
 O        -7.5770227083        5.4543667281      -10.1218953347
 C        -8.7295977450        6.8957282910       -8.5980062005
 C       -10.0223462121        4.1564615147      -11.1053324005
 C       -11.2328972404        5.7795475890       -9.6241139832
 C       -10.8888289125        3.1095633682       -4.5303732054
 C        -8.6145028369        1.9768047035       -4.7199677736
 C       -14.2343198614       -3.1272438974       -4.7008063980
 C       -14.1945939056       -3.9362433292       -2.2415441736
 C        -9.5467689011       -7.0157084681       -5.4549529494
 C        -7.5735178238       -5.4903237257       -5.9434550342
 C       -12.8603656690       -3.3614971206      -11.0775196684
 C       -11.9480457323       -5.1664323407      -12.5692168083
 C        -6.2173702001        1.3007718186      -11.7251965336
 C        -5.7136022824       -0.9114316738      -10.8964851718
 C        -5.0738289496       -0.1887421986       -3.4610807826
 C        -4.3444927869        1.6313340774       -5.0252165517
 C         1.0251164492       -3.3216345914       -5.9445321270
 C         2.4800678981       -1.4497685339       -4.9977182532
 C         3.9010896500        2.5247220844      -11.5644225155
 C         1.8789487194        1.1031329600      -12.1314464085
 C         4.8467946385       -3.7400238660      -13.3176397480
 C         7.5094098101       -4.0541793497      -13.1309853467
 C         3.9989421630       -5.7065849046      -19.4708334235
 C         6.2918695796       -5.7241519264      -20.4897779453
 C         9.0717389798        1.2701007672      -19.7234905000
 C         7.8628851150        0.6891202762      -21.8246392184
 H        11.0782246240       -0.6707820165      -19.1095328989
 H        11.4177356114       -0.1100539023      -20.8366785078
 H        11.5311983547       -1.8055308495      -20.4444585196
 H         6.4574298158       -1.7728650139      -21.1284159526
 H         5.5323404991       -1.3480484527      -19.8312064274
 H         7.4647065609       -2.7882566223      -18.4515728699
 H         7.5703018620       -3.5967200853      -20.1489582461
 H         4.6275477373       -6.7002235981      -16.4589481561
 H         4.5759669381       -4.9853360519      -16.9430429664
 H         7.0737047809       -6.1681076222      -15.3188332534
 H         5.5773961171       -5.6184670312      -14.4452098920
 H         7.6265752867       -0.5360893784      -12.8256291718
 H         6.6721946166       -1.7285115427      -11.8247409210
 H         5.9790708632        1.0776933103      -12.9990756137
 H         6.1811555495        0.5652357807      -11.3239873800
 H         1.8224709563       -0.9731015496       -9.8660169689
 H         1.2511327332        0.6627559530       -9.6580624662
 H         1.4262197957        0.5685106872       -7.3517319700
 H         3.1262140654        0.1134704875       -7.6603471536
 H        -0.7740838017       -2.1599625102       -4.0990863453
 H        -1.4926087578       -2.2643680617       -5.6949652123
 H        -1.7302091284        0.3223906825       -4.0937615459
 H        -2.6255874633       -1.1062251964       -3.4361806227
 H        -4.8172402775        0.1841023284       -7.6852635444
 H        -5.9216902627        1.4033162792       -7.3425834921
 H        -7.6536407501       -0.9928092546       -7.7621516135
 H        -6.1542749558       -1.2312706657       -8.7057795865
 H        -7.9017518853       -2.3027885746      -10.5139748756
 H        -8.2139175307       -2.2917118937      -12.3379881717
 H       -10.5947095554       -1.2718657216      -11.6278458769
 H       -10.1568830303       -2.0277090795      -10.1837075802
 H       -12.7202583911       -4.6440783901       -8.6618061607
 H       -11.2863914660       -3.4965639670       -8.6989485694
 H       -10.5168523311       -6.2481793643       -7.9205858966
 H       -11.5576607328       -5.6964658177       -6.7522113914
 H        -9.0029291162       -4.9559371477       -2.2136363001
 H       -10.0126103998       -6.1372467902       -2.9545388071
 H       -10.9527058429       -3.3809532129       -2.0737080521
 H       -11.5865905076       -4.9216237353       -1.6669975996
 H       -13.9145335551       -0.3562774431       -3.7743060978
 H       -12.7036949217       -0.9971403750       -4.7904774724
 H       -11.8692904449        0.5731196724       -2.4660652532
 H       -12.6670504996        1.3591865476       -3.6386915463
 H       -11.7275845110        2.9324820369       -6.8125361066
 H       -12.0661398500        1.3025371045       -7.5098950439
 H       -11.6326567420        2.7270937005       -9.4733100733
 H       -10.1752062172        1.8505757091       -9.1873198124
 H        -9.4790887936        7.5974354764       -8.8478744499
 H        -7.7142296985        7.2998089830       -8.6568209537
 H        -8.8944987591        6.6349405820       -7.5448051911
 H       -10.9917195664        3.8595712380      -11.3484831961
 H        -9.3610742748        3.2785675139      -11.0381166144
 H        -9.6686974792        4.8596961668      -11.9092921102
 H       -12.1683520643        5.2977979526       -9.4333923555
 H       -11.1969035252        6.4629746066      -10.5211920329
 H       -11.2871201393        6.4458728824       -8.7621857204
 H       -10.3148819764        3.9753768987       -4.9553602872
 H       -10.7906138312        3.3509393069       -3.4731089833
 H       -11.9432329408        3.1719849730       -4.7973789279
 H        -8.4034919372        2.8957773603       -4.1228706990
 H        -8.0324840258        1.9368013326       -5.6720793770
 H        -8.2583047190        1.2185642429       -4.0867048160
 H       -14.9750040984       -2.3107823007       -4.5214652364
 H       -14.6801702697       -4.0544059655       -5.0424436661
 H       -13.6252166219       -2.8117928950       -5.6022153662
 H       -14.8407847308       -4.7975428192       -2.4725703792
 H       -14.9435412373       -3.3038869866       -1.8989454383
 H       -13.6096194757       -4.3015737811       -1.4114634263
 H        -9.6896343818       -7.4508543937       -6.4294079743
 H       -10.4616710316       -7.0742645507       -4.8198297907
 H        -8.7254885700       -7.4486082987       -4.9467909485
 H        -7.1021814831       -6.1921129969       -5.2021584174
 H        -7.1248215187       -4.5923767093       -5.6143608962
 H        -7.2771597353       -5.8074968849       -6.9245920428
 H       -12.7606496488       -2.6253263295      -10.2833848002
 H       -13.6005131983       -4.0763321239      -10.7570603489
 H       -13.1772018263       -2.7298702524      -11.9451510985
 H       -11.0932506978       -5.8356903776      -12.6809363581
 H       -12.0191407338       -4.5538716889      -13.4332320298
 H       -12.8743557553       -5.6381418628      -12.4118316288
 H        -5.8388118492        0.7900305724      -12.6071572516
 H        -5.3990812883        1.6972071981      -11.1570644312
 H        -7.0346540907        1.9554092946      -12.0562474048
 H        -4.7755486533       -0.5855493753      -10.4759963939
 H        -5.6784608071       -1.1389108205      -11.9911846912
 H        -5.9662885876       -1.8580461342      -10.4445418259
 H        -4.3123681779        0.3174897248       -2.8702859011
 H        -5.0125557951       -1.2279388502       -3.3095653882
 H        -6.0598512088        0.1784182398       -3.1996127608
 H        -3.8380235538        1.9766523395       -4.1181164250
 H        -5.2830971267        2.2008274352       -5.0900351494
 H        -3.7379264568        1.8627829691       -5.9095427882
 H         0.5474184512       -3.4462970946       -4.9128928012
 H         1.9923481311       -3.9508204384       -5.9882628731
 H         0.2287972650       -3.5721820233       -6.6855666981
 H         3.2555841654       -2.1134162189       -4.9756501482
 H         1.9611214634       -1.6006904955       -4.0688512928
 H         2.6759744866       -0.4561278352       -5.2697185489
 H         4.8112690500        2.7123944282      -10.9098784587
 H         3.0959842858        3.1779961532      -11.2157619303
 H         4.0626279819        2.9688569017      -12.5548052777
 H         1.3478562615        0.1428945809      -12.2180341293
 H         1.9293786679        1.6116546181      -13.1110670573
 H         1.2756888231        1.7533674345      -11.5016742102
 H         4.6087901660       -2.8184260910      -12.7895861475
 H         4.8181657703       -4.5329222916      -12.6088322391
 H         4.2228326596       -3.9994936998      -14.1510509644
 H         7.5559269038       -5.1660807249      -13.2375855654
 H         7.2471808445       -4.0288812626      -12.0723073312
 H         8.4323188881       -3.6513581289      -13.4109595886
 H         3.7956442916       -6.7439647613      -19.2308070352
 H         3.7595166956       -5.6140046920      -20.4609152619
 H         3.2568079959       -5.0828478248      -18.9494180464
 H         7.3536200069       -5.6816970839      -20.1189239028
 H         6.3080270762       -5.1457699747      -21.4169595185
 H         6.0113662284       -6.6772047733      -20.8610611139
 H        10.0757940336        1.6692948597      -20.1191965799
 H         9.0812524315        1.0020088492      -18.6677412079
 H         8.2938883585        2.0669882414      -19.8927737968
 H         8.6392092233        0.8431840202      -22.6380803759
 H         7.3426297035        1.6975350462      -21.6332214290
 H         7.0415290958        0.0015520700      -22.1011551776
 Na       -8.7546341958       -1.6481093684       -5.8927020591
 Na        5.9003772568       -1.3000302367      -17.0136154810
