232

 C        10.8664140798       -0.3991527341      -20.0781993627
 C         9.5304192201       -0.7577655154      -20.7776072893
 O         9.3650174541       -1.9125070801      -21.2205443798
 C         8.3321535181        0.2932662847      -20.7583124795
 C         7.2837762312       -0.4385820124      -19.9292040181
 O         6.8765877454        0.1121232783      -18.8909776643
 C         6.4263644827       -1.5629670334      -20.3221526401
 C         6.8885990931       -2.9365681180      -19.8815738424
 C         5.7303673906       -3.7184118156      -19.2315754566
 O         4.9781544417       -3.1655155331      -18.4132332380
 C         5.5228890791       -5.1607430089      -19.4470673471
 C         6.2190682325       -5.9491154579      -18.0721425636
 O         7.1222963133       -6.7166140598      -18.1775176142
 C         5.4361985697       -5.5652244445      -16.6640411400
 C         6.5077267302       -5.3848094600      -15.5908297367
 C         6.4146189577       -3.8655745804      -15.2747518751
 O         6.6938710023       -3.1868769608      -16.2413905782
 C         6.1799868805       -3.4022297895      -13.8491431519
 C         6.1633823250       -1.8444376471      -13.7525896306
 O         6.0867186193       -1.0403367912      -14.6634128653
 C         6.0635018250       -1.2937927572      -12.2307426657
 C         5.4712536580        0.0401019158      -12.1504327614
 C         3.9638162029       -0.1403737902      -12.0991393870
 O         3.4422649377       -1.2217707095      -12.3513732082
 C         3.1316286493        1.0468256329      -11.5039130631
 C         3.2790056313        0.7064579304       -9.8980302804
 O         4.3279470097        0.6981663002       -9.3716906396
 C         1.9101844760        0.1677848543       -9.1384842011
 C         2.2897210747       -0.2852974924       -7.7567344850
 C         1.7792684355       -1.6770995802       -7.3633419586
 O         1.5446871722       -2.5088012383       -8.2083953176
 C         1.4223684744       -1.9337458886       -5.8475268636
 C         0.1903477426       -0.9673002920       -5.4134778550
 O         0.2645536886        0.2419341490       -5.6696949780
 C        -0.9274902580       -1.5414819507       -4.4499645903
 C        -2.0943592998       -0.5776911551       -4.3427283546
 C        -3.3110210683       -0.7069472746       -5.1863741618
 O        -3.4101982407       -1.5616045917       -6.0407717258
 C        -4.5775513573        0.1686046032       -4.8209165650
 C        -5.6506786415       -0.2305780853       -5.9391953324
 O        -6.4644649822       -1.1011852630       -5.7143137683
 C        -5.8283464856        0.5471429485       -7.2249195780
 C        -6.2477858655       -0.1495089327       -8.5455770088
 C        -6.7298551780        0.7450905995       -9.6884178491
 O        -7.2553347945        1.8547969541       -9.4313059711
 C        -6.6366017999        0.2947594613      -11.1658035909
 C        -8.1653660404       -0.0911866070      -11.6407249296
 O        -8.9789082446        0.6680799763      -11.9282486067
 C        -8.4977794050       -1.6835059123      -11.7679142123
 C       -10.0264331493       -2.0486149930      -11.6627623113
 C       -10.2550905948       -3.5755511548      -11.9084643645
 O        -9.4874261829       -4.2269231206      -12.5669311424
 C       -11.5847069590       -4.2286341222      -11.3776898041
 C       -11.0495674044       -5.1505999093      -10.2573522513
 O       -10.6084862055       -6.2438964634      -10.5637537361
 C       -11.0900715334       -4.5147163433       -8.8623535468
 C       -10.4383834860       -5.3300328115       -7.7301392496
 C        -9.6354072317       -4.5636457548       -6.7232110273
 O        -9.3936444709       -3.3639884269       -6.8377583012
 C        -9.0280930865       -5.3793147548       -5.4922804131
 C        -9.2811939617       -4.5649838963       -4.1768187258
 O        -8.7351025832       -3.4498781551       -4.1054004702
 C        -9.8477332542       -5.1500399735       -2.8785815947
 C       -11.1120059638       -4.4200807367       -2.3849698900
 C       -12.0839614629       -4.1135461709       -3.4995141118
 O       -11.8476656675       -4.4903847258       -4.6462321527
 C       -13.3178871926       -3.2777165348       -3.2238963602
 C       -12.8945701039       -1.8326099120       -2.7996025062
 O       -12.1416633345       -1.7095388652       -1.8590579423
 C       -13.2130253490       -0.5311356379       -3.6538818094
 C       -12.2406892235        0.5592606047       -3.2808244469
 C       -10.9377164928        0.4202375222       -4.1705557194
 O       -10.3979040152       -0.6952601277       -4.0875728904
 C       -10.2657283702        1.5154698641       -5.0172026582
 C       -10.2040521591        1.0658629255       -6.5062101309
 O        -9.3228038219        0.2881721361       -6.8638608792
 C       -11.1275001271        1.7561382998       -7.4366742677
 C       -10.5233082103        2.4018372250       -8.6763259309
 C       -10.0484788550        3.8677380213       -8.4582593204
 O        -9.9406903936        4.4218521030       -7.3838856723
 C        -9.8599321404        4.8159519543       -9.7016734229
 C        -8.5447659457        5.5574983739       -9.6461251686
 O        -7.6571852000        5.1976121354      -10.4798644151
 C        -8.2735336417        6.6081184633       -8.6056562449
 C        -9.9358967591        3.9624372555      -11.0118069078
 C       -11.0630266046        5.8720063835       -9.7972338565
 C       -10.9258103884        2.9177382217       -4.8363978245
 C        -8.7831663328        1.6839069358       -4.5172213410
 C       -14.2573358488       -3.2931055927       -4.4603393406
 C       -13.9636685886       -3.6826935413       -1.9267911685
 C        -9.4431900089       -6.9122315302       -5.3408393598
 C        -7.4021213381       -5.3252030097       -5.4728865664
 C       -12.5965261920       -3.1792224717      -10.9008589932
 C       -12.3344867236       -5.1917965179      -12.3671064704
 C        -6.2549227626        1.4701540390      -12.2048231728
 C        -5.6631928620       -0.9668274138      -11.4374157346
 C        -5.2243004559       -0.3087064949       -3.4554798593
 C        -4.1823029877        1.7039405302       -4.7484507484
 C         1.0580743816       -3.5030653139       -5.6283769708
 C         2.6942429253       -1.6366596309       -4.9902905522
 C         3.8393738457        2.4172366632      -11.8356557468
 C         1.6525191280        1.0882955061      -11.9667885071
 C         4.7118697192       -3.9190428078      -13.3783283273
 C         7.3587390328       -4.0244549820      -13.0280748750
 C         4.0172419768       -5.4315399727      -19.5230462500
 C         6.1398121511       -5.8061482040      -20.7430893549
 C         8.6539624225        1.5842331678      -20.0588120581
 C         7.9183532919        0.5119971270      -22.3405649031
 H        10.6516636799       -0.0004136745      -19.0359914750
 H        11.2135703269        0.5766264109      -20.5529675814
 H        11.6370656923       -1.1668375726      -20.0791928132
 H         6.2208597141       -1.5701321977      -21.3942504512
 H         5.4643810004       -1.3647451813      -19.8090458760
 H         7.6126485053       -2.8837424196      -19.0243632838
 H         7.3537417717       -3.4541673908      -20.7793169723
 H         4.7967035689       -6.4003012213      -16.4418417401
 H         4.7109886575       -4.7189838050      -16.8417058945
 H         7.6066959393       -5.7378858175      -15.8723178839
 H         6.3620603273       -5.9824068531      -14.7751084595
 H         7.0560245942       -1.4838178871      -11.8261819318
 H         5.4713844050       -2.0822692106      -11.7314893834
 H         5.7718564764        0.5581216417      -13.0856268937
 H         5.8188309628        0.6520281341      -11.3435107055
 H         1.5003451990       -0.6486670290       -9.8092241724
 H         1.2018769541        0.9355301738       -9.1051805445
 H         2.0951458840        0.4615452512       -6.9439410789
 H         3.3397116765       -0.4621559342       -7.5631607338
 H        -0.4837457760       -1.8122073106       -3.5359506775
 H        -1.2855977809       -2.4422965512       -4.9756157300
 H        -1.7743168926        0.3448780556       -4.7891757134
 H        -2.4552912414       -0.3642710674       -3.2646984788
 H        -4.9110643113        1.1174072719       -7.4078666986
 H        -6.5592756985        1.3423457208       -6.9450669188
 H        -7.0283046061       -0.8990219312       -8.2385292948
 H        -5.4178834901       -0.7522013124       -8.8239579522
 H        -7.9232837254       -2.1979585039      -10.9776200830
 H        -7.9945630701       -2.0822648836      -12.6971501193
 H       -10.5773682893       -1.5093447156      -12.4577461200
 H       -10.3637349366       -1.7108255189      -10.7079025024
 H       -12.2230844458       -4.4329955384       -8.6768924166
 H       -10.5937354412       -3.5537701123       -8.8851487632
 H        -9.6508116989       -6.0030767292       -8.1568401272
 H       -11.0825630222       -6.0351653137       -7.1974381423
 H        -9.0927342151       -5.0947435741       -2.0036252197
 H       -10.1586043839       -6.1725931879       -3.0850461259
 H       -10.9934450654       -3.4266157711       -1.9517823586
 H       -11.7187503021       -5.0334585083       -1.6218333607
 H       -14.1898464623       -0.2779898629       -3.5013980532
 H       -13.1310118667       -0.7869072334       -4.6772661539
 H       -12.0027429551        0.3000534018       -2.2423841714
 H       -12.8149347116        1.4827044690       -3.2321417565
 H       -11.6722776775        2.5132168501       -6.9468877263
 H       -11.8674190820        1.0207930276       -7.7519135990
 H       -11.2177015604        2.3274880806       -9.4948483572
 H        -9.6317211162        1.8782771213       -9.1755407494
 H        -8.2974367877        7.5889689251       -8.9433955278
 H        -7.3319369402        6.2016792544       -8.1753777313
 H        -8.9637526944        6.5498751146       -7.7797336360
 H       -10.8569119518        3.5537566712      -10.9594763957
 H        -9.2360687858        3.1278609227      -10.9775895343
 H        -9.8678470570        4.6080140088      -11.9026256102
 H       -11.9879424570        5.4275646664      -10.1780250686
 H       -10.7227618926        6.7729705947      -10.4217645676
 H       -11.3675559151        6.1848870534       -8.8107295806
 H       -10.4860565144        3.7034231937       -5.5520969961
 H       -10.6632445438        3.3620610967       -3.7577590104
 H       -12.0337352001        2.9529062401       -4.9191145917
 H        -8.7267976165        1.5992238099       -3.4401861803
 H        -8.4081917056        2.6616599069       -4.8604750027
 H        -8.1777773331        0.9081615601       -4.8930598936
 H       -15.2461013634       -2.7869030229       -4.2813619109
 H       -14.6258456002       -4.2786779350       -4.6545123613
 H       -13.7380751688       -2.8294133536       -5.3306165868
 H       -14.0384367690       -4.7829699147       -1.6927520517
 H       -15.0226950723       -3.3553048995       -1.9106145521
 H       -13.5269314670       -3.2964940927       -1.0111582489
 H        -9.3176286104       -7.3189949687       -6.3232597091
 H       -10.4625168436       -6.8539043584       -5.0593264004
 H        -8.7277591191       -7.4682922352       -4.7053877553
 H        -7.0899503890       -5.6824948742       -4.4506457135
 H        -7.1470306890       -4.3205571924       -5.6554679317
 H        -6.8593993384       -5.8432697026       -6.1771774760
 H       -12.2431812242       -2.6384940853      -10.0804146839
 H       -13.4091474562       -3.6377382774      -10.4591459471
 H       -12.9636841659       -2.5492899154      -11.7267556616
 H       -11.6240385855       -5.8379883337      -12.9096858897
 H       -12.7912670822       -4.5553820387      -13.1116515160
 H       -13.1383238761       -5.6269135938      -11.8147001631
 H        -6.5001288065        1.0059175470      -13.1776937489
 H        -5.2651479506        1.7180314174      -11.9804477951
 H        -6.9009133467        2.3709940271      -12.0607912497
 H        -4.6752447573       -0.7138539863      -11.3254379382
 H        -5.6991017644       -1.0358920647      -12.5909052563
 H        -5.8795143386       -1.9584467490      -11.0087302425
 H        -4.4305591767       -0.4219890973       -2.6808417276
 H        -5.6751934867       -1.2536700026       -3.7640064147
 H        -6.0588224115        0.3966369831       -3.1396114459
 H        -3.6415942420        1.8244630393       -3.8103819607
 H        -5.1134074200        2.2506069425       -4.4941610347
 H        -3.7523927827        2.3141369909       -5.6161345130
 H         1.3294443742       -3.8850730436       -4.6548919296
 H         1.5747099231       -4.0638520952       -6.4879093200
 H         0.0109421678       -3.6739483716       -5.5785563283
 H         3.4897634717       -1.9527398486       -5.5698263918
 H         2.5919786762       -2.2821696882       -4.1078026939
 H         2.7176807524       -0.6013842818       -4.9311085508
 H         4.7426406381        2.5472711835      -11.3611161554
 H         3.0753494562        3.2275638889      -11.5735149685
 H         4.0569802915        2.6077510026      -12.8859349530
 H         1.1806779749        0.1163717982      -12.0505030411
 H         1.5370661489        1.5812099722      -12.9322697810
 H         1.1297740525        1.7935159282      -11.3798625961
 H         4.7041651028       -4.1491051962      -12.3478980001
 H         4.3923298642       -4.7673155891      -13.9889085660
 H         4.0667364392       -3.0726619855      -13.7950984708
 H         7.3105638628       -5.1596641436      -13.1032846555
 H         7.2604777338       -3.8041156816      -11.9703594744
 H         8.3213209694       -3.6870175805      -13.4012442687
 H         3.7586174724       -6.4052841176      -19.7755531209
 H         3.6878977225       -4.7930083509      -20.3376066657
 H         3.4090005319       -4.9816396000      -18.6797989609
 H         7.3031774957       -5.6443357349      -20.8208444999
 H         5.7184461177       -5.3802634746      -21.6379665265
 H         5.9447983775       -6.8856421961      -20.8204594685
 H         9.4555728471        2.2094021206      -20.5826912519
 H         8.9977698422        1.2775988290      -19.0867483724
 H         7.7881214961        2.2893545642      -20.0922875330
 H         8.8705237856        0.7602890876      -22.8600058271
 H         7.1595454344        1.3133844392      -22.3160797523
 H         7.6083563420       -0.4334678669      -22.7079044863
 Na       -8.7701162439       -1.7090783591       -5.6724116187
 Na        5.6542106908       -1.3504114132      -17.1175077968
