232

 C        10.8295261380       -0.2397401837      -20.0727584358
 C         9.5382359161       -0.6571560732      -20.7981622782
 O         9.4714260398       -1.7243697050      -21.2551183335
 C         8.3312166560        0.2973103263      -20.7632036280
 C         7.0368247757       -0.2976094876      -20.0510549840
 O         6.8440181464        0.1026092804      -18.8810273297
 C         6.3358001760       -1.5776388486      -20.6395903015
 C         6.8228343667       -2.8850214866      -19.9099668091
 C         5.7080091738       -3.6756285268      -19.2404060145
 O         4.9413887732       -3.0891842456      -18.4360983127
 C         5.5222715655       -5.1881562860      -19.4508416318
 C         6.1355277653       -5.8946668480      -18.2314355741
 O         7.0978161588       -6.6270960776      -18.2230225711
 C         5.4958955586       -5.7028278437      -16.8469469369
 C         6.4446134059       -5.4248154704      -15.7125048701
 C         6.5238482975       -3.8428033108      -15.4093424449
 O         6.8215747850       -3.0708316254      -16.3040137224
 C         6.1696922479       -3.4913986401      -13.9078865961
 C         6.1041564440       -1.9633382567      -13.7553480102
 O         5.9749864378       -1.1891920200      -14.6602269133
 C         6.2606554851       -1.3190634167      -12.3053785715
 C         5.4284039548       -0.0583671722      -12.1075001359
 C         3.8043448428       -0.1164307662      -11.9818497455
 O         3.2840815247       -1.1426301829      -12.3101894443
 C         3.0302147307        1.1376467095      -11.3891601674
 C         3.1213591119        0.8230091167       -9.8924076136
 O         4.1998623446        0.8623084705       -9.2802111305
 C         1.9448252004        0.2446246992       -9.0488510544
 C         2.3635712069       -0.3736076304       -7.7914462234
 C         1.6565324142       -1.7023503718       -7.3534985873
 O         1.4589104547       -2.6693545347       -8.0806610159
 C         1.4030303087       -1.9025186376       -5.7939909542
 C         0.3109994350       -1.0285120413       -5.3917691306
 O         0.3770850948        0.1439238417       -5.6557516557
 C        -0.8574921934       -1.5215007300       -4.6303908665
 C        -1.9162800988       -0.4473357278       -4.2498011692
 C        -3.2637233160       -0.7182466106       -5.1113585812
 O        -3.3611687399       -1.5965805936       -5.9245091632
 C        -4.6242853873        0.1307137221       -4.8552724420
 C        -5.6622971364       -0.1908545034       -6.0242436730
 O        -6.3654174586       -1.1573320742       -5.7687780845
 C        -5.7294269675        0.7072974593       -7.3088190465
 C        -6.0018064160       -0.1414417254       -8.6099129365
 C        -6.6149842365        0.8234935263       -9.7636244590
 O        -7.2309061752        1.7589432375       -9.3543407651
 C        -6.6924422337        0.3169638323      -11.3887925779
 C        -8.1759112621       -0.1515535730      -11.6796002627
 O        -9.0491116430        0.6869978900      -11.8195587563
 C        -8.4888775312       -1.6904518286      -11.7500781685
 C        -9.9296680478       -2.0521968804      -11.8577519164
 C       -10.2805661315       -3.5744404226      -12.1001501581
 O        -9.5049194782       -4.4019173805      -12.5865893907
 C       -11.6008054807       -4.1898573777      -11.4176608252
 C       -11.1076318042       -5.1701275875      -10.2176079751
 O       -10.6257277790       -6.2510094500      -10.4345091442
 C       -10.9953398295       -4.5416562325       -8.7462305892
 C       -10.3034344848       -5.4804389440       -7.7621499642
 C        -9.6053603834       -4.6648425164       -6.6924604975
 O        -9.4527057706       -3.4443496891       -6.7869670819
 C        -8.9840073501       -5.3685774403       -5.3427060655
 C        -9.2028806778       -4.5862300509       -4.0797016304
 O        -8.7861430076       -3.4121502599       -4.0569601800
 C        -9.7234915429       -5.1829582073       -2.7417583557
 C       -11.0751416202       -4.5596789454       -2.3015511820
 C       -12.0819590493       -4.1182311900       -3.4876025437
 O       -11.8124719272       -4.3703107370       -4.6582195122
 C       -13.3566417283       -3.2369794792       -3.1523083518
 C       -12.7964388491       -1.8490994738       -2.8306521243
 O       -12.1440374517       -1.6277282867       -1.8392472139
 C       -13.3305520386       -0.5086823992       -3.5555501343
 C       -12.3269950310        0.6168129730       -3.3804344248
 C       -10.9923078718        0.3152796289       -4.0760115629
 O       -10.4485307214       -0.7569387182       -4.0549260637
 C       -10.2134592707        1.5371588727       -4.9221585784
 C       -10.1473167359        1.0725519201       -6.4941802230
 O        -9.3686921951        0.1787238293       -6.9071566562
 C       -11.1053254040        1.6885258477       -7.4906443395
 C       -10.3417196292        2.3466925859       -8.6882680540
 C       -10.0688263066        3.9235970309       -8.5581757738
 O        -9.9761009779        4.4000246323       -7.4515531372
 C        -9.9504324570        4.7680962759       -9.8448927097
 C        -8.3633864289        5.4660732423       -9.7040411027
 O        -7.5063493710        5.2541056517      -10.4843643131
 C        -8.1894998761        6.4813776271       -8.5342309080
 C       -10.0705384282        3.8682644184      -11.1669662371
 C       -10.9968302120        5.8343473208       -9.7897838750
 C       -10.9623360770        2.8200150645       -4.7160766606
 C        -8.7640145957        1.5770414819       -4.4695569725
 C       -14.3738693141       -3.2472920583       -4.3455200244
 C       -14.0522887055       -3.7408941272       -1.8202537706
 C        -9.3264253177       -6.8764093634       -5.4125474364
 C        -7.4120062376       -5.2675565904       -5.4825746052
 C       -12.5590408707       -3.1104013337      -10.8718181650
 C       -12.2739443194       -5.0387222896      -12.5731346283
 C        -6.2713578281        1.4455329958      -12.3214642372
 C        -5.7366113103       -0.8139199544      -11.3811536356
 C        -5.3186716869       -0.2314853476       -3.5534472971
 C        -4.3272892162        1.6156318052       -4.7546524433
 C         1.1279515694       -3.5007453671       -5.6415820168
 C         2.6327199207       -1.5620452934       -4.9236194695
 C         3.7393156543        2.4046467997      -11.7856428754
 C         1.5844710578        1.0136424934      -11.8992605579
 C         4.8349386271       -4.0572740966      -13.3471474894
 C         7.1617550664       -4.1822134459      -12.9467234497
 C         3.9608693031       -5.4995510397      -19.4720230588
 C         6.1625772682       -5.9038384030      -20.6727777525
 C         8.7218621520        1.6210354355      -20.1331154112
 C         7.8180573060        0.4655260874      -22.3462274350
 H        10.5856532311        0.0948922089      -19.0474343750
 H        11.2768046189        0.7404334891      -20.4748530677
 H        11.5170373699       -1.0617654481      -20.0710951324
 H         6.5577739252       -1.7947238343      -21.7009505018
 H         5.2426868443       -1.4780924863      -20.4641975204
 H         7.5509239115       -2.7536657632      -19.0578671359
 H         7.2751202169       -3.4914419056      -20.6295581774
 H         5.0109214939       -6.7124433697      -16.6039679419
 H         4.6584984986       -5.0453303761      -16.9233424474
 H         7.4243561298       -5.9182269848      -15.7870561536
 H         6.0788965211       -5.9131374263      -14.8360184929
 H         7.3253189532       -1.1707350229      -12.2279294143
 H         6.1296117530       -2.0931858725      -11.5777757669
 H         5.8142936989        0.6470004433      -12.8278192476
 H         5.7726274995        0.3503802382      -11.1722857488
 H         1.3713855312       -0.4367909406       -9.6717509250
 H         1.3115131050        1.1467388563       -8.8475720293
 H         2.4495682529        0.2978463397       -6.9320553708
 H         3.3623361192       -0.8214552007       -7.7047766947
 H        -0.4364967686       -1.9885936601       -3.7043558882
 H        -1.3245314466       -2.2876455442       -5.1688898580
 H        -1.6019170590        0.5711365404       -4.5531092419
 H        -2.2323817041       -0.5332215736       -3.1827352789
 H        -4.8210105856        1.3858527394       -7.3615835631
 H        -6.6498679456        1.4186603194       -7.2945293326
 H        -6.6196997760       -1.0161658592       -8.2546699574
 H        -4.9603109333       -0.6187613405       -8.9409524255
 H        -7.9270260354       -2.2396642084      -10.9527406380
 H        -7.8627711332       -1.9544028982      -12.6060694546
 H       -10.3163327047       -1.4783812269      -12.6099156370
 H       -10.3891456203       -1.7400955915      -10.8716875469
 H       -12.0353703151       -4.3706497547       -8.4400322926
 H       -10.4293715996       -3.6102276964       -8.7523174397
 H        -9.5955282185       -6.1622979238       -8.2601896665
 H       -10.9717150986       -6.1191223791       -7.2232391647
 H        -8.9232687521       -4.8194108328       -1.9949740572
 H        -9.8505670403       -6.2631583862       -2.7522043118
 H       -11.0395972834       -3.5459621251       -1.8104823672
 H       -11.5953186522       -5.2099609797       -1.6665793661
 H       -14.1790607986       -0.3067932919       -2.9444643143
 H       -13.7303618962       -0.5743987986       -4.5332990379
 H       -12.2311151202        0.7423370196       -2.3086096281
 H       -12.8469393453        1.4726355346       -3.7432414059
 H       -11.8319423935        2.4440340865       -7.0621504678
 H       -11.7208360220        0.8734025368       -7.9593194393
 H       -10.8833007562        2.1384559142       -9.5459182895
 H        -9.3756330913        1.9039823914       -9.0078400618
 H        -8.1465527808        7.4191959663       -9.0611051372
 H        -7.2882519943        6.1724924246       -8.0402738341
 H        -8.9205762134        6.5909959196       -7.7723497886
 H       -11.1134858511        3.5279528175      -11.3750269267
 H        -9.4643740590        3.0157327166      -10.9594443554
 H        -9.6784257438        4.4603091542      -11.9448751806
 H       -12.0995153319        5.5849702180       -9.9807049858
 H       -10.6603849627        6.6050888996      -10.4967985310
 H       -10.9611224064        6.2940217296       -8.7651542518
 H       -10.5340017735        3.5930749318       -5.3701736814
 H       -10.8866935542        3.2300307992       -3.6871861539
 H       -12.0497644499        2.7879255931       -4.9952791257
 H        -8.6776248464        1.1061108111       -3.5280379098
 H        -8.3611532889        2.5745458098       -4.4003819219
 H        -8.1328067012        0.9481399806       -5.1684312543
 H       -15.3924558132       -2.8061238345       -4.1762644374
 H       -14.6980419684       -4.2905590432       -4.5236184152
 H       -13.8936670305       -2.7869145272       -5.2168116024
 H       -14.4100842833       -4.7423189598       -1.9840929091
 H       -14.9741398081       -3.1600113746       -1.4583285410
 H       -13.4591741255       -3.8244774903       -0.9188623589
 H        -8.8795439947       -7.1741698370       -6.3472597946
 H       -10.3660050959       -6.9004290561       -5.4103246028
 H        -8.7613945753       -7.4655523519       -4.6341437096
 H        -6.9417952087       -5.8188440162       -4.7123218000
 H        -7.1506129771       -4.2103857137       -5.5996605214
 H        -6.9882505118       -5.6028737534       -6.4179437363
 H       -12.1277844518       -2.6711476631       -9.9851499460
 H       -13.4673703978       -3.5233802913      -10.4679881395
 H       -12.9017123538       -2.4555149222      -11.6476993358
 H       -11.5544212587       -5.5042877214      -13.1810710798
 H       -12.7438738450       -4.3148739029      -13.2001848145
 H       -13.0532829082       -5.6438621346      -12.1682224318
 H        -6.5854728236        1.1603364113      -13.3464883872
 H        -5.2399773287        1.6402900943      -12.1095682394
 H        -6.8102168356        2.3189860645      -11.9896550366
 H        -4.7289242903       -0.4528997280      -11.2479487442
 H        -5.6579765118       -1.3059238072      -12.3528695122
 H        -6.0619461322       -1.5704318207      -10.6488790952
 H        -4.5982852332       -0.0775852691       -2.7820536707
 H        -5.6022732404       -1.2980092130       -3.6753962162
 H        -6.2314215496        0.3730447535       -3.4410084982
 H        -3.9729380575        1.8258588979       -3.7365941826
 H        -5.2409761629        2.2158751302       -4.8680779033
 H        -3.6191140600        2.0671496138       -5.5365597023
 H         1.3661821104       -3.8896095052       -4.5939632228
 H         1.7227499004       -3.9871691389       -6.4225826382
 H         0.0141339419       -3.8380852968       -5.6427259804
 H         3.3837013344       -2.1826139541       -5.3251030647
 H         2.3002110609       -1.8477674104       -3.9763012622
 H         2.8519889451       -0.5664730363       -5.0902430745
 H         4.4722833241        2.7224410917      -11.0590728955
 H         2.9189560777        3.1728685927      -11.8465671588
 H         4.3033164889        2.4553597793      -12.7461886054
 H         1.3854787213       -0.0418460058      -11.9399952263
 H         1.4312658209        1.3700470261      -12.9147879459
 H         0.8633290651        1.5966502061      -11.3570121782
 H         5.0697701816       -4.2670638770      -12.3364868231
 H         4.5211075734       -4.9659511084      -13.8494732677
 H         4.0421241124       -3.3021426425      -13.4688050690
 H         6.9547004102       -5.2578195373      -12.9153275380
 H         7.1707477905       -3.7528116610      -11.9620298717
 H         8.2211032601       -4.0305671204      -13.3606073013
 H         3.7051440177       -6.3752759224      -19.9971196877
 H         3.3945328331       -4.6387173358      -19.9100420678
 H         3.5931795245       -5.5038322500      -18.4933836122
 H         7.2279667775       -5.7647677014      -20.6880161798
 H         5.7407166553       -5.7075573893      -21.6546891092
 H         6.0475713452       -7.0209269592      -20.4898398175
 H         9.6586595484        2.0397108682      -20.5192189451
 H         8.8348366665        1.4519508998      -18.9979955435
 H         7.9925230776        2.3991420510      -20.4821989353
 H         8.3934481693        1.3027755715      -22.8241726771
 H         6.7423205942        0.6327522342      -22.2169339874
 H         8.1565386081       -0.4790112142      -22.8603150367
 Na       -8.7771850579       -1.4614964993       -5.4388693789
 Na        5.6928553454       -1.1307123587      -17.1400161683
