232

 C        10.8069794560       -0.1107370352      -20.0383882167
 C         9.5382179298       -0.6655316809      -20.7062090244
 O         9.5127635113       -1.6823089609      -21.3811233572
 C         8.1385988086        0.3818915535      -20.8026116807
 C         7.0800633067       -0.3515168969      -20.0264782265
 O         6.7471270432        0.0025006753      -18.8960213676
 C         6.3826815804       -1.5464502155      -20.7703965394
 C         6.8083282325       -2.8293164607      -20.0090875718
 C         5.6625363757       -3.6495011157      -19.2901040407
 O         4.9568832621       -3.0337085110      -18.5020271750
 C         5.4412116231       -5.2595437230      -19.4202369053
 C         6.1029862266       -5.9269620236      -18.1888681609
 O         7.1499833984       -6.4797352237      -18.4306104157
 C         5.3695537038       -5.8476820527      -16.8240323829
 C         6.3732774909       -5.4286307810      -15.7903514905
 C         6.5045909413       -3.9464940636      -15.4154470623
 O         6.9410099219       -3.1163367940      -16.2083223569
 C         6.1857143466       -3.5592435022      -13.8934416673
 C         6.0837694782       -1.9498050931      -13.7315777690
 O         5.7852880056       -1.2833959370      -14.7262671511
 C         6.2754433887       -1.2475943004      -12.3493553247
 C         5.3438643169       -0.0648601976      -11.9858705361
 C         3.8175483432       -0.2269024687      -11.9063247278
 O         3.1449129220       -1.1332963929      -12.3203807538
 C         3.0206224478        1.0039202325      -11.3210671594
 C         3.0749529391        0.8368112808       -9.7845754080
 O         4.1653671883        1.1427160163       -9.2767275019
 C         1.8441034327        0.2394864867       -8.9817030182
 C         2.4500182928       -0.5196308078       -7.7797323878
 C         1.7756528980       -1.9036639632       -7.2975585726
 O         1.3306221097       -2.6168380556       -8.1794525247
 C         1.5258125445       -2.0144675528       -5.7525794044
 C         0.3271457264       -0.9306547806       -5.3513721594
 O         0.4521877835        0.2053123000       -5.6610686950
 C        -1.0498231678       -1.5492829412       -4.6558275457
 C        -2.0306739791       -0.3831536220       -4.2387935723
 C        -3.3170446312       -0.7364377825       -5.0343788163
 O        -3.2386865350       -1.6552558968       -5.8243409186
 C        -4.6329891734        0.1445944186       -4.8449539704
 C        -5.6071127008       -0.2125766979       -6.1343813627
 O        -6.4140853591       -1.1265451770       -6.0383754880
 C        -5.6255438480        0.6853672857       -7.3314458362
 C        -5.7869180541       -0.0093281173       -8.7476696398
 C        -6.6528587250        0.7754580168       -9.7035006266
 O        -7.2426572446        1.7762734788       -9.4264923533
 C        -6.6790925876        0.2259185650      -11.1791997319
 C        -8.1867774001       -0.2262218834      -11.6044337186
 O        -9.1235016740        0.6360505575      -11.6999137926
 C        -8.4673621648       -1.7159043267      -11.8253706510
 C        -9.9036892276       -2.1025490915      -12.0100888125
 C       -10.1807052942       -3.6189317851      -11.9946813704
 O        -9.4721511497       -4.3352078415      -12.6555004763
 C       -11.5673708047       -4.1164164980      -11.3851759375
 C       -11.0305493285       -5.1254470692      -10.2020815712
 O       -10.7161301693       -6.2620986199      -10.3625168027
 C       -10.9325860098       -4.5545816405       -8.7454423087
 C       -10.1977937768       -5.5095162220       -7.7512189899
 C        -9.5541859605       -4.6591897919       -6.5519600332
 O        -9.5048354630       -3.4847977188       -6.7502309490
 C        -8.8035777617       -5.3837669153       -5.4139319627
 C        -9.1792230488       -4.4489477814       -3.9708952355
 O        -8.9538200705       -3.2941488952       -3.8965730495
 C        -9.8134145696       -5.2031740421       -2.7625335091
 C       -11.1130053856       -4.5984633285       -2.2986731459
 C       -12.0577831276       -4.0713162903       -3.4829304694
 O       -11.7363795945       -4.2990964357       -4.6115262074
 C       -13.3242270207       -3.3016629707       -3.0777953141
 C       -12.8606897094       -1.7528038809       -2.6423624580
 O       -12.0137296409       -1.6409954197       -1.7911240068
 C       -13.4121017620       -0.5193713133       -3.4283456984
 C       -12.3317448862        0.6690794917       -3.5995347847
 C       -11.0419279911        0.2571011415       -4.1955233579
 O       -10.5761781962       -0.8219256948       -3.9915700220
 C       -10.2056298972        1.4446503680       -4.9167921266
 C       -10.2200130806        1.0847752472       -6.4442510234
 O        -9.4970316683        0.1755468974       -6.7723188491
 C       -11.0915183739        1.7241997549       -7.6024073410
 C       -10.1935658848        2.2888339062       -8.7307104273
 C       -10.0909069087        3.8497803902       -8.6364614136
 O       -10.0720643496        4.3368038750       -7.5032613694
 C        -9.7646348785        4.7408559455       -9.8789735803
 C        -8.3965627836        5.3784545958       -9.7632465420
 O        -7.4984361106        5.1906897926      -10.5342511564
 C        -8.1717162843        6.2857211635       -8.5611084969
 C       -10.0223341647        3.9712260310      -11.2405545783
 C       -10.8613922172        5.8574000518       -9.8130069948
 C       -10.8858466535        2.7869022406       -4.6910682617
 C        -8.7262103359        1.4773197941       -4.3289099699
 C       -14.3451963046       -3.2694348019       -4.1423500619
 C       -14.1294378476       -3.8191104331       -1.8341313094
 C        -9.2574919810       -6.9190352673       -5.3549153487
 C        -7.3166214607       -5.2592605638       -5.6711300873
 C       -12.5541563262       -3.0665090040      -10.8813984928
 C       -12.2018086492       -4.8820054346      -12.6158662614
 C        -6.3603683484        1.4478966490      -12.2380498890
 C        -5.6259326281       -0.8843904735      -11.4901683234
 C        -5.3238837455       -0.2905877588       -3.5119390115
 C        -4.3501502751        1.7334152428       -4.8593693709
 C         1.1609119353       -3.5259644365       -5.5591183498
 C         2.7216912823       -1.5281037694       -4.8642456473
 C         3.5849169498        2.4372533924      -11.6799641203
 C         1.5644543703        0.9557664238      -11.8833344870
 C         4.7284015339       -4.0949039423      -13.5011275458
 C         7.2621851340       -4.2608325739      -12.9770787146
 C         3.8871320039       -5.5767146888      -19.4802937357
 C         6.1678550926       -5.8249397037      -20.6741223590
 C         8.5849723722        1.8209120702      -20.2938913561
 C         7.8132737061        0.5046625167      -22.3179682484
 H        10.7127994162        0.2956999235      -19.0661562250
 H        11.1374266298        0.7090087001      -20.5808521200
 H        11.5230229302       -0.9713598934      -20.0566868840
 H         6.8015594619       -1.7163675673      -21.7774807130
 H         5.2645713825       -1.4928963279      -20.7931071315
 H         7.4232632256       -2.6050084189      -19.1509358042
 H         7.4409926163       -3.4494893918      -20.6252046016
 H         4.8021880964       -6.7630487610      -16.5314596498
 H         4.6381165730       -5.1303118234      -17.1058087446
 H         7.2861531543       -5.5968713772      -16.1615384883
 H         6.4680072550       -6.1018631639      -14.8073246585
 H         7.3367970767       -1.0168127030      -12.3080346496
 H         6.2975109232       -2.0664803089      -11.6570147115
 H         5.6125964784        0.7638367571      -12.6168451742
 H         5.6757414927        0.3141759446      -10.9916604765
 H         1.3775153140       -0.3973599511       -9.6845200641
 H         1.1380568723        1.1109438033       -8.7641077705
 H         2.4872830549        0.1135407785       -6.9302697509
 H         3.5231348498       -0.7620255825       -7.7912931314
 H        -0.7809887836       -2.0743209164       -3.6988357148
 H        -1.5057495173       -2.2795119543       -5.3194497976
 H        -1.6472755085        0.6277756566       -4.6128310132
 H        -2.2821855780       -0.4082085311       -3.2286372850
 H        -4.7727889352        1.4313456454       -7.3124380644
 H        -6.5958098518        1.2855315011       -7.3846950939
 H        -6.1218278250       -1.0728107067       -8.5883411253
 H        -4.7565150537       -0.1188749781       -9.2155091328
 H        -8.0711598624       -2.1888044296      -10.9198186650
 H        -7.7000647602       -2.0297890782      -12.5032330216
 H       -10.2090612796       -1.8210434627      -13.0264786216
 H       -10.4622638557       -1.5182678768      -11.2573768854
 H       -11.9068053102       -4.3249839791       -8.4583580733
 H       -10.3336706232       -3.6159527620       -8.7730180035
 H        -9.4095866146       -6.0382981116       -8.2599174663
 H       -10.8774347466       -6.2768844892       -7.3758509652
 H        -9.0701236268       -4.9672588105       -2.0462595064
 H        -9.9823281004       -6.3057431038       -2.8874215447
 H       -11.0833615867       -3.6967386600       -1.6847349537
 H       -11.6651801378       -5.3452523027       -1.7901831704
 H       -14.4647115401       -0.2265540402       -3.0380255281
 H       -13.6650384092       -0.9414653258       -4.4269412958
 H       -12.1065314472        1.0860234616       -2.6242507615
 H       -12.8651154132        1.4192482841       -4.1943410886
 H       -11.8912690960        2.4995987221       -7.3335599709
 H       -11.6370994324        0.8633151133       -8.0903217956
 H       -10.5474974730        1.9106418681       -9.7202037423
 H        -9.2183611327        1.9640667881       -8.7678263576
 H        -8.1624845870        7.3000831418       -9.0466080488
 H        -7.3044285339        5.9883685804       -8.0603808127
 H        -8.9708644442        6.3299601130       -7.8307299682
 H       -11.1394155064        3.8277038423      -11.4591134862
 H        -9.5059310391        3.0265239129      -11.2470017918
 H        -9.5983926893        4.6775651119      -11.9076471523
 H       -11.9055532255        5.4439972166       -9.7959507765
 H       -10.8079948426        6.4593767658      -10.6974055177
 H       -10.7326795646        6.5466852839       -8.9079595239
 H       -10.2604053979        3.5239027741       -5.1215398168
 H       -11.0170161393        3.0003281387       -3.7127713312
 H       -11.8272855325        2.9568629439       -5.1902921546
 H        -8.6587329938        0.9086324620       -3.3796661897
 H        -8.5676518493        2.5020743674       -4.0267522767
 H        -7.9083006359        1.1679270057       -5.0323720680
 H       -15.2083159061       -2.7177308673       -3.8618319136
 H       -14.8174060762       -4.2672901267       -4.3070487867
 H       -13.9010613136       -2.8488467224       -5.0342864921
 H       -14.7261530763       -4.6633940408       -2.1219003562
 H       -14.7166538035       -3.1294880953       -1.2585210886
 H       -13.4864297448       -4.2441139758       -1.0461310943
 H        -8.7188666092       -7.5862321737       -6.0326676987
 H       -10.3701561499       -6.8603668051       -5.3979836377
 H        -8.9225677807       -7.1327311265       -4.3993699516
 H        -6.8010669658       -5.9222809817       -5.0447243006
 H        -6.9739654530       -4.2186898263       -5.7887030763
 H        -6.9991287128       -5.5685504984       -6.7361775059
 H       -12.2098835816       -2.5513418057       -9.9666782159
 H       -13.5824272593       -3.4763583895      -10.5879411215
 H       -12.8402317759       -2.4925668036      -11.7275156800
 H       -11.4344906387       -5.4042319696      -13.1115258643
 H       -12.5989271072       -4.1843695057      -13.3282507758
 H       -12.9945732591       -5.5151764942      -12.2453997371
 H        -6.6908268110        1.0081080612      -13.1391097988
 H        -5.2648497406        1.7118435052      -12.1650442202
 H        -6.9070410868        2.3229880760      -11.9756026019
 H        -4.5413446947       -0.4885413945      -11.4654742734
 H        -5.6746037875       -1.2738643369      -12.4402841135
 H        -5.7934086361       -1.6834398310      -10.7963453853
 H        -4.7242391945        0.1344854497       -2.7371034189
 H        -5.3547953401       -1.3679152882       -3.4327860124
 H        -6.2950947046        0.0990431981       -3.5485954401
 H        -3.9144196929        2.1342556053       -3.9185020187
 H        -5.1762295881        2.3823073402       -5.1841969091
 H        -3.6324451720        1.8873915153       -5.5999169500
 H         0.9184394560       -3.7090981564       -4.4764400631
 H         1.9210010772       -4.1709187075       -5.9711577184
 H         0.1363344302       -3.8064302909       -5.9810898514
 H         3.5969045163       -2.2010743151       -4.9004271362
 H         2.1988075696       -1.3310191805       -3.9972583842
 H         2.9576683063       -0.5710115762       -5.3588156709
 H         4.3652383606        2.7901300060      -10.8562841376
 H         2.8226653183        3.1528097506      -11.7599388242
 H         4.2355529217        2.4676961818      -12.5766376074
 H         1.1389891826       -0.0415003411      -11.8904943441
 H         1.4777206390        1.2697725913      -12.9103004866
 H         0.9388364338        1.6862287992      -11.3347441126
 H         4.8084966775       -4.1766530485      -12.3674607041
 H         4.6523416211       -5.0948453257      -13.8985739831
 H         3.9539301571       -3.4771895226      -13.7721971526
 H         7.1187675163       -5.3179101143      -12.9527388995
 H         7.3353853206       -3.7817626865      -11.9513810082
 H         8.2676431575       -4.0610457231      -13.3786147704
 H         3.6820188298       -6.4832287884      -20.1402501106
 H         3.2142532594       -4.7832625318      -19.7252352804
 H         3.6479431916       -5.8660209994      -18.5049804025
 H         7.1646990615       -5.5966625921      -20.5720721021
 H         5.7591404698       -5.4797691691      -21.6627725706
 H         6.1951021977       -6.8922006925      -20.6821939871
 H         9.5585835706        2.0943113742      -20.6716448920
 H         8.7123196519        1.6794291145      -19.1956106907
 H         7.9319857528        2.6310107617      -20.6215922012
 H         8.0765249821        1.5128709870      -22.5659893335
 H         6.7485256583        0.2571114322      -22.4388129793
 H         8.5938367711       -0.0963451307      -22.8817340014
 Na       -8.6851620245       -1.3786627240       -5.2431083452
 Na        5.7693879556       -0.9707949434      -17.1700425659
