232

 C        10.3298782676        0.4860500325      -19.9827869384
 C         9.2532423784       -0.1335804491      -20.7846266854
 O         9.4979324146       -1.0702220079      -21.5070071652
 C         7.8876281665        0.5672825145      -20.9189199713
 C         7.1281930887       -0.3882915383      -19.9610896381
 O         6.9255598747       -0.1479269571      -18.8223925993
 C         6.7257031696       -1.6989516839      -20.6206103514
 C         6.9548901470       -3.0085967945      -19.8481736093
 C         5.5769042406       -3.4600713124      -19.3335271158
 O         4.8569869973       -2.8608064390      -18.5524557610
 C         5.2507284607       -4.8987524828      -19.6516700767
 C         6.0816447635       -5.6104557351      -18.4499213131
 O         7.2766914174       -5.8130969958      -18.5659381442
 C         5.4404668119       -5.7322893673      -17.0456601725
 C         6.4093198582       -5.4707688290      -15.8430641062
 C         6.5055453072       -4.0306838666      -15.5168909082
 O         7.1618385732       -3.2401420058      -16.1567732347
 C         5.9296219107       -3.5690947865      -14.0959283185
 C         5.7152325561       -1.9857739803      -14.0342558683
 O         5.4213465111       -1.3730991587      -15.0345853270
 C         5.9404626328       -1.3526781802      -12.6749478391
 C         5.0822860326       -0.0853962494      -12.3447861725
 C         3.6307988286       -0.2894420845      -11.9963997875
 O         3.0974979983       -1.3965172044      -12.1200003485
 C         2.7334186028        0.9446712232      -11.3099509142
 C         3.0054680624        0.7292016716       -9.7198888379
 O         3.4467405984        1.6501956492       -9.0905137607
 C         2.6121970876       -0.6288232618       -9.0908525435
 C         2.5786783304       -0.6517229731       -7.5724959731
 C         1.6966325333       -1.8414352060       -7.0563979035
 O         0.9406722582       -2.4383881352       -7.8001110800
 C         1.5810299275       -2.0713197111       -5.4241104389
 C         0.3644204646       -0.9298663627       -5.2127018168
 O         0.6021094473        0.2890076900       -5.3400112252
 C        -1.0567728822       -1.4206952314       -4.8187198313
 C        -2.0915328671       -0.3016847349       -4.8819083234
 C        -3.4143289939       -0.8549667771       -5.2273183480
 O        -3.5155095260       -1.9091422276       -5.8279058864
 C        -4.7232426417        0.1250482890       -5.0027630270
 C        -5.5391238872       -0.0146294708       -6.4284144429
 O        -6.6297821834       -0.5202107428       -6.5330773589
 C        -4.8011752996        0.5541958887       -7.5855849687
 C        -5.2423929161       -0.0268417495       -9.0238313072
 C        -6.3706497211        0.6812154081       -9.7335530499
 O        -7.1105311746        1.5492705906       -9.2422548899
 C        -6.5439311030        0.3045244118      -11.3419290245
 C        -8.0446711835       -0.2932639086      -11.2591835419
 O        -8.9163133752        0.2666184046      -10.7342704510
 C        -8.2313764313       -1.7961795933      -11.8405448740
 C        -9.7271602339       -2.1363686898      -12.0224623657
 C       -10.0230736543       -3.6681258698      -11.9238046928
 O        -9.2957770616       -4.5489500951      -12.3102186564
 C       -11.4673616076       -4.1444814171      -11.3053883988
 C       -10.9702241049       -4.9139655760      -10.0668560578
 O       -10.9396850364       -6.1285103776      -10.0360788849
 C       -10.4318268547       -4.1474613520       -8.8125442510
 C        -9.9607170222       -5.0219170599       -7.6865937966
 C        -9.4418839925       -4.2564799901       -6.5475527534
 O        -9.5858659171       -3.0151426383       -6.5730953209
 C        -8.6381873019       -5.0816375319       -5.3731109302
 C        -9.1042945319       -4.5697385930       -4.0283911028
 O        -8.7114560449       -3.4504194046       -3.6257431397
 C        -9.9463575669       -5.4153674928       -2.9902310135
 C       -11.0204704173       -4.5509046266       -2.2067880101
 C       -11.9528197211       -4.0327006559       -3.1809930850
 O       -11.7948170008       -4.1731470189       -4.3949975065
 C       -13.2847972213       -3.2163138493       -2.6786965062
 C       -12.9924944434       -1.7112637339       -2.6069915394
 O       -12.2396522991       -1.3829909355       -1.7096596711
 C       -13.4889980623       -0.5482895273       -3.5494270298
 C       -12.3841952312        0.5207363792       -3.4692707285
 C       -11.1909041880        0.2054225310       -4.3140172891
 O       -10.7911113501       -0.9786650792       -4.4944364538
 C       -10.2607632126        1.3234238338       -5.0306838843
 C       -10.0715373701        0.8880471167       -6.4555061201
 O        -9.2408665990        0.0645863750       -6.7361790021
 C       -11.0001894446        1.5233203402       -7.5304243635
 C       -10.2198854432        2.2365583332       -8.6620064807
 C       -10.2032413366        3.7834590088       -8.5533718736
 O       -10.3795818881        4.3661974494       -7.5009861302
 C        -9.7670103973        4.4874351763       -9.9107450953
 C        -8.1119769843        4.8189922316       -9.7987141817
 O        -7.3534943111        4.6075122406      -10.7387395890
 C        -7.7274582034        5.6797906254       -8.5882067119
 C        -9.8950383913        3.6013089130      -11.1638042525
 C       -10.3525086965        5.8520200035      -10.0691492553
 C       -10.9325496174        2.7074361266       -4.8188895586
 C        -8.9949702849        1.3726621525       -4.1786384170
 C       -14.3857195311       -3.4883773597       -3.7764518702
 C       -13.7202160344       -3.7396034005       -1.2779732321
 C        -8.7043987541       -6.6442469528       -5.5505813622
 C        -7.1485690822       -4.7667837404       -5.4505473569
 C       -12.4272330395       -2.9799202680      -10.9389222436
 C       -12.0966273861       -5.0806419627      -12.4122315656
 C        -6.5335604661        1.5315333417      -12.1534193259
 C        -5.5015884078       -0.7918281603      -11.7830270462
 C        -5.4817248441       -0.5710350972       -3.8461428590
 C        -4.3206504901        1.6304001772       -4.8311961359
 C         1.1375281365       -3.4988136872       -5.0333805123
 C         2.7557170734       -1.4916795359       -4.4901210312
 C         3.2257984674        2.3091797826      -11.7460266098
 C         1.2994192937        0.7714808512      -11.7519656928
 C         4.4575485569       -4.2922436698      -13.8737810136
 C         7.0857909308       -4.0277318551      -13.2344010490
 C         3.7318231044       -5.2455630327      -19.5820705542
 C         5.7850898976       -5.4920085565      -20.9592176710
 C         7.9186040886        2.0067940257      -20.4175448718
 C         7.2376036995        0.5464776307      -22.4671411358
 H        10.1155914371        0.7794018034      -18.9527795870
 H        10.5248664158        1.4916370667      -20.3842212654
 H        11.1045439177       -0.1848750431      -19.9839674638
 H         7.3342786343       -1.8299099813      -21.5173348896
 H         5.6447610885       -1.5564846602      -20.7471067691
 H         7.6557261024       -2.9521340890      -19.0595907954
 H         7.4506707649       -3.7733510704      -20.4857092018
 H         5.0020875990       -6.6931232534      -16.9896785764
 H         4.5623867331       -5.0228679359      -17.0236328354
 H         7.5506382835       -5.7826620396      -16.1387604073
 H         6.1842223100       -5.9850932303      -15.0142110344
 H         7.0279319825       -1.2624157984      -12.5671921617
 H         5.7357446665       -2.1484504512      -11.9516814387
 H         5.0655683879        0.5749027102      -13.2335365091
 H         5.6366612097        0.5095279320      -11.5981451124
 H         3.5184260440       -1.1715047160       -9.5303752141
 H         1.7589957519       -1.0734609606       -9.5695217498
 H         2.1503505303        0.2241524077       -7.0289920184
 H         3.5594662718       -0.7399388234       -7.1529715809
 H        -1.0342552957       -1.9349308516       -3.8783519589
 H        -1.2648338689       -2.1419281000       -5.6793225229
 H        -1.8210079349        0.3882033967       -5.7088902382
 H        -2.2979803476        0.2511348714       -3.9552292311
 H        -3.7526912722        0.1734706293       -7.4399227513
 H        -4.9491112590        1.6833378875       -7.4939045515
 H        -5.4526979789       -1.1151940710       -8.8129127580
 H        -4.3533424199       -0.0215903235       -9.6131374716
 H        -7.7885850889       -2.5059214807      -11.1689499045
 H        -7.5855330157       -1.9093938211      -12.7155411518
 H       -10.2126451738       -1.7697922260      -13.0202114812
 H       -10.3417828408       -1.6994875757      -11.2641143432
 H       -11.1428668113       -3.3874499996       -8.5629990075
 H        -9.5698831646       -3.5481849887       -9.0833773138
 H        -9.1778762666       -5.6554279183       -8.0365085800
 H       -10.7978895422       -5.6233638716       -7.3010280427
 H        -9.2091411499       -5.7724652970       -2.2555080194
 H       -10.4379786370       -6.1971458875       -3.5383476124
 H       -10.5401284434       -3.7242425489       -1.7989831649
 H       -11.4930545088       -5.1613100331       -1.3685891753
 H       -14.4511555264       -0.2177975781       -3.0213147932
 H       -13.8945066130       -0.9180849528       -4.5672871722
 H       -12.1153314987        0.4254836288       -2.4144899023
 H       -12.8776059009        1.4615880323       -3.7028375315
 H       -11.5081141410        2.3796963851       -7.0567256430
 H       -11.8098099920        0.8179597367       -7.9589978463
 H       -10.5888579037        1.9594416711       -9.6414792617
 H        -9.1323547944        1.9939190264       -8.6830063684
 H        -8.4265153733        6.4681849728       -8.5011685334
 H        -6.6966970153        6.1440288890       -8.7217635108
 H        -7.7451743751        5.0579132243       -7.6956231905
 H       -10.8664398724        3.4976622227      -11.4860602201
 H        -9.3367830605        2.6628551050      -10.9631559740
 H        -9.2354141127        4.1268403493      -11.9217104735
 H       -11.2501024559        5.7601149374      -10.6475052226
 H        -9.7971814534        6.6590436495      -10.6486486701
 H       -10.4277114074        6.2334569897       -9.0846956853
 H       -10.4749333806        3.4530742623       -5.4034418536
 H       -11.0245798834        3.0106170629       -3.7735433951
 H       -11.9006402075        2.6550746095       -5.1869089149
 H        -8.3439804106        0.5199584332       -4.4384751229
 H        -9.2670828085        1.1925228675       -3.1124317147
 H        -8.5422178233        2.3138601097       -4.2602691716
 H       -15.2227882639       -2.8154692287       -3.4791002907
 H       -14.6523435889       -4.5219594405       -3.8851101713
 H       -14.0607241062       -3.1768345388       -4.7992113864
 H       -13.5771424664       -4.8508379226       -1.2076088353
 H       -14.7334402095       -3.4510744353       -1.0810428010
 H       -13.1603386445       -3.2738434198       -0.4784584293
 H        -8.1660014806       -6.8634505729       -6.4489000294
 H        -9.7208025951       -6.9971970389       -5.6526330672
 H        -8.3217887369       -7.0143908992       -4.5739916616
 H        -6.4355817724       -5.1059325961       -4.5777410217
 H        -7.0608922848       -3.6713738128       -5.5287001003
 H        -6.6895023526       -5.0728951489       -6.3820200853
 H       -11.9475928994       -2.3093564591      -10.2217530223
 H       -13.4325329973       -3.2943728812      -10.6488654770
 H       -12.5071312474       -2.1941815858      -11.7712347517
 H       -11.3288328024       -5.7978643788      -12.6969446793
 H       -12.4464363844       -4.5125787841      -13.2355471773
 H       -12.8750150124       -5.6661933519      -12.0173713438
 H        -6.9454712977        1.2904518233      -13.1331274891
 H        -5.5508196485        1.8552331069      -12.3829334932
 H        -7.1149159613        2.2768632541      -11.5752956699
 H        -4.5631466881       -0.3698176327      -11.7917342466
 H        -5.7504216332       -1.1468760103      -12.8416973676
 H        -5.3611774370       -1.6567532323      -11.1426737680
 H        -4.8208061630       -1.1025019253       -3.1504476154
 H        -6.0417212047       -1.2895677120       -4.3872559264
 H        -6.1261744664        0.1650910512       -3.3849822975
 H        -3.8763519471        1.7090957893       -3.8471541491
 H        -5.1546172172        2.3171488885       -4.8532155219
 H        -3.4738503611        2.0104738856       -5.4347765523
 H         1.3292486549       -3.7246765976       -4.0061554357
 H         1.7835546123       -4.3364440991       -5.4994541367
 H         0.1738352675       -3.8048668092       -5.4169778478
 H         3.6401433916       -1.6473915561       -5.0707000039
 H         2.8029255845       -2.0927681756       -3.5040753037
 H         2.4873545436       -0.5067892629       -4.1985314694
 H         4.2574141131        2.3769398488      -11.6779245267
 H         2.9761301122        3.1536941701      -11.0005508648
 H         2.9254769506        2.4467449693      -12.7971121930
 H         0.9973061160       -0.2693297800      -11.7066780538
 H         1.1300873709        1.1556963809      -12.7536559586
 H         0.6357494152        1.1625728664      -11.0150118107
 H         3.7890221967       -3.7385472148      -13.3192978605
 H         4.6178274393       -5.2724602022      -13.5416985406
 H         3.9562519572       -4.1956132773      -14.8777722043
 H         7.3868555836       -5.1189197720      -13.4262920932
 H         7.0460773950       -3.8512104471      -12.1528372181
 H         7.9654099299       -3.4748985892      -13.5711865614
 H         3.6340939830       -6.1945717832      -19.1926885077
 H         3.4142274196       -5.2650921742      -20.6223105270
 H         3.1409380510       -4.5516226527      -18.9073810179
 H         6.9018730621       -5.7403683044      -21.0222500334
 H         5.5011267571       -4.8526823228      -21.7213439673
 H         5.2508721455       -6.4094564750      -21.0724346852
 H         8.8563088757        2.4908194297      -20.7717008852
 H         7.8676219426        2.1117224131      -19.3666382684
 H         7.0136922793        2.5440038824      -20.7270521100
 H         8.1068455174        0.9362681606      -23.0921333487
 H         6.4400757807        1.3383956285      -22.4088101559
 H         6.9035220042       -0.4439218982      -22.7468694836
 Na       -8.6435700607       -1.6538153092       -5.2868403139
 Na        5.9090223226       -1.4367031536      -17.2354061517
