232

 C        10.3365326699        1.1570350728      -20.2288045831
 C         9.3219365869        0.5093746445      -21.1331827943
 O         9.6282291985       -0.2539099611      -21.9667523019
 C         7.7077084079        0.9219993299      -20.8986190842
 C         7.0380097320       -0.2285799983      -20.0626290769
 O         6.8756200118       -0.0655219090      -18.8847167002
 C         6.9018845033       -1.7170133140      -20.6604073723
 C         6.7014614547       -2.8244759519      -19.5921553539
 C         5.3353804498       -3.4239730255      -19.2781811799
 O         4.5383316697       -2.6805999678      -18.6972691957
 C         5.0722125006       -4.8235003369      -19.5384175582
 C         6.1084933614       -5.6248746607      -18.4474505383
 O         7.2231926093       -5.8923331432      -18.8175903615
 C         5.5927913969       -5.8948510423      -17.0495777718
 C         6.4277645375       -5.6515262218      -15.7084843557
 C         6.4436806155       -4.1264410810      -15.5786374079
 O         6.6686321514       -3.3574893536      -16.5117268244
 C         5.8552788856       -3.6384530649      -14.1967613576
 C         5.7728649034       -2.0611360718      -14.1845363409
 O         5.5660528923       -1.4047494813      -15.1983342488
 C         5.7116355323       -1.3586110744      -12.8352410285
 C         4.6858267405       -0.1845435891      -12.9423249067
 C         3.5015379703       -0.4749956864      -12.1036726754
 O         3.0582071166       -1.6133362979      -12.0017211663
 C         2.7003167496        0.6226047791      -11.3086723048
 C         2.8756424638        0.4969312345       -9.7526471807
 O         2.8563066199        1.5035690189       -9.0371944500
 C         2.8301278123       -0.8936485977       -9.1544035798
 C         2.7260137349       -0.8285718945       -7.7035199555
 C         1.8344327277       -1.8883287996       -6.9616258755
 O         1.2122388429       -2.6912006812       -7.6390923657
 C         1.6934066805       -1.8403873649       -5.4826804700
 C         0.4383858151       -0.7736253257       -5.1033870893
 O         0.6673469318        0.2498602065       -4.5055604024
 C        -1.1099922058       -1.3455181916       -5.3345926426
 C        -2.1784316014       -0.3560543029       -4.9011860521
 C        -3.5223182031       -0.9315847391       -5.2108732657
 O        -3.6464444633       -2.1163145903       -5.4838690241
 C        -4.8059138324       -0.0760765356       -5.0731088107
 C        -5.4421785075       -0.1417054119       -6.4646152970
 O        -6.5091208001       -0.6539486356       -6.6390997731
 C        -4.5935740302        0.4515055918       -7.6177747240
 C        -4.9983419933       -0.3016053453       -8.9374580061
 C        -5.9560058062        0.5795328334       -9.8108287264
 O        -6.4545596569        1.5635721122       -9.2559858251
 C        -6.4543299074        0.1791599151      -11.2442902930
 C        -7.9703445863       -0.3229352389      -11.0817315240
 O        -8.7781542176        0.2818649423      -10.5214835978
 C        -8.3242295813       -1.6875731192      -11.8640537186
 C        -9.7331618933       -2.2365310377      -11.7554861429
 C        -9.8961429521       -3.7539508815      -11.7493548255
 O        -9.0297841789       -4.4959513733      -12.1589728078
 C       -11.3232930853       -4.3122523235      -11.3099791019
 C       -11.0686035974       -5.1546157498       -9.9369231259
 O       -11.5760168914       -6.1971265942       -9.6489017057
 C       -10.3447021664       -4.2676767780       -8.8838688973
 C        -9.9948387053       -5.0124845213       -7.6339141878
 C        -9.3260228010       -4.1203077554       -6.6193821068
 O        -9.2207377714       -2.9173467971       -6.7460307159
 C        -8.4428032366       -4.8914419233       -5.4974970569
 C        -8.8950410044       -4.2407279353       -4.1703737320
 O        -8.6661908571       -3.0777833957       -3.9053245842
 C        -9.6111041888       -5.1400169631       -3.0907679974
 C       -10.7632301427       -4.3341395029       -2.3757691696
 C       -12.0713860661       -4.0323028008       -3.1191448081
 O       -12.1084349758       -4.1216988951       -4.3390930721
 C       -13.3849491780       -3.4098133213       -2.4132927292
 C       -12.9451913128       -1.8401016154       -2.3793035134
 O       -12.1948850207       -1.4622762772       -1.5431327016
 C       -13.3009986930       -1.0292169898       -3.7161767140
 C       -12.6116654758        0.3114031673       -3.9275420032
 C       -11.1897486914        0.3192867975       -4.3231330880
 O       -10.4827012427       -0.6764086150       -4.1923508111
 C       -10.3938616399        1.6713809973       -4.8860294462
 C       -10.1595660431        1.3444144148       -6.3943219614
 O        -9.3985055577        0.5287730081       -6.7628301309
 C       -11.2097568526        1.6625138717       -7.4685019764
 C       -10.5806824293        1.9726087660       -8.8094372160
 C       -10.0755545024        3.4475347019       -8.7909627181
 O       -10.1752451943        4.1465576317       -7.8336366032
 C        -9.5269080544        4.2266649319      -10.0115312383
 C        -7.9639526987        4.4057239695       -9.7498719867
 O        -7.1933448871        4.0316151088      -10.5408778818
 C        -7.5193032781        5.0054750585       -8.4415699712
 C        -9.8156554274        3.6774451517      -11.4668869540
 C       -10.2009989592        5.6909825093       -9.9351970163
 C       -11.1910806376        2.9656067559       -4.6355407075
 C        -8.9805399344        1.6749866008       -4.2111962464
 C       -14.7008283788       -3.5848188169       -3.1547545147
 C       -13.4518328551       -3.9585992290       -1.0434989272
 C        -8.3908558171       -6.4044614569       -5.5768612511
 C        -6.9467454472       -4.3538531864       -5.5772701507
 C       -12.3268985187       -3.1436496254      -11.0356825179
 C       -11.7828946805       -5.3387597821      -12.3426875208
 C        -6.7355209359        1.6176416631      -12.0923197414
 C        -5.4869483418       -0.6802451847      -12.0210826052
 C        -5.7688734858       -0.6970267527       -3.9380007992
 C        -4.5677949628        1.2958268729       -4.6181165855
 C         1.3214419462       -3.1864175212       -4.8460781093
 C         2.9279004795       -1.3287863482       -4.7214822355
 C         3.0672828868        2.0119195858      -11.7786737575
 C         1.1375117422        0.3210704819      -11.4797606031
 C         4.3347199758       -4.1100972982      -14.1081261408
 C         6.8726389543       -4.0007424118      -13.0709005515
 C         3.5252490699       -5.1847550578      -19.4962363760
 C         5.5992742525       -5.3913229968      -20.8724753156
 C         7.5369689553        2.2065690190      -20.0715848377
 C         7.1414706939        0.9000328825      -22.3649597035
 H        10.1216849783        0.9422777643      -19.1519828265
 H        10.3111011380        2.3141776027      -20.3030007788
 H        11.3673323338        0.8960338767      -20.4526055672
 H         7.9545453251       -1.9444352158      -20.8299635019
 H         6.3125433315       -1.7150167184      -21.5905895208
 H         7.0817252981       -2.4216555121      -18.6684234456
 H         7.4850006802       -3.5545684337      -19.7794386691
 H         5.1349724118       -6.8571206338      -17.0067185568
 H         4.7878687029       -5.0729393324      -16.9933565627
 H         7.4737683611       -6.1010356143      -15.8774762027
 H         5.9894374210       -6.1753100922      -14.8477682276
 H         6.6804265498       -0.9444276551      -12.6310873584
 H         5.4877756443       -2.1125148075      -12.0994986272
 H         4.2869736475       -0.0571043158      -13.9529005760
 H         5.1743750779        0.6894568908      -12.5872821749
 H         3.8162407779       -1.3436970642       -9.5036875791
 H         2.0625188432       -1.3671002981       -9.7169278978
 H         2.1849607547        0.0824519330       -7.4001812254
 H         3.7472145962       -0.7927328791       -7.3911835439
 H        -1.2750256122       -2.3153519283       -4.9755426529
 H        -1.1416868943       -1.4341135433       -6.4421859379
 H        -2.0337805497        0.6560386425       -5.3068095160
 H        -2.2516198149       -0.2651780129       -3.7853061163
 H        -3.5683412851        0.1670535380       -7.2661635325
 H        -4.7724416409        1.5486329768       -7.8909987970
 H        -5.5250196322       -1.2504637088       -8.6743698112
 H        -4.0853250223       -0.5821830392       -9.5573927775
 H        -7.6243539093       -2.4705337001      -11.5553206499
 H        -8.2005520114       -1.4547948932      -12.9400010478
 H       -10.4274248141       -1.8332736554      -12.5599379520
 H       -10.1776501727       -1.8542771316      -10.8499379357
 H       -11.0599693694       -3.5036198053       -8.5467909528
 H        -9.5396181660       -3.6363924038       -9.2846366791
 H        -9.3228984015       -5.8392810591       -7.7005400385
 H       -10.9658181108       -5.3395980514       -7.2298466702
 H        -8.7474211779       -5.4472290570       -2.4326472091
 H        -9.9617345456       -6.0338083495       -3.5444352412
 H       -10.3403284097       -3.4121988406       -2.0564870593
 H       -10.9471464616       -4.9200010540       -1.4418668157
 H       -14.3986291839       -0.8601894157       -3.7001428070
 H       -13.1014583506       -1.6698803514       -4.6082388698
 H       -12.8045580400        0.9640878492       -3.1333404660
 H       -13.1405363682        0.5722472796       -4.8294353840
 H       -11.8451369197        2.5059865481       -7.1360137938
 H       -11.9141233258        0.7411911800       -7.5188914264
 H       -11.2709415031        1.9631326775       -9.5999586554
 H        -9.7673441369        1.2635950526       -8.9314916551
 H        -8.2426884410        5.4614226126       -7.8615415078
 H        -6.8274356007        5.8306513504       -8.6112014187
 H        -7.1562578229        4.1506930958       -7.9136334535
 H       -10.8449806958        3.6177538378      -11.6428662835
 H        -9.3326900623        2.7022443143      -11.5576656594
 H        -9.3586915216        4.3683538181      -12.1841519120
 H       -11.2933369738        5.5254261433       -9.7888186622
 H        -9.9356336150        6.3147157229      -10.8688876942
 H        -9.9324643808        6.2966935491       -9.0722268960
 H       -10.7024030647        3.7943378607       -5.1255165328
 H       -11.0484367722        3.2247525967       -3.5576269277
 H       -12.2705499709        2.8214078864       -4.9087227723
 H        -8.1254421085        1.7702987087       -4.8560134663
 H        -8.9406543050        0.7653358810       -3.6083338922
 H        -9.0040897055        2.4276878697       -3.4759823803
 H       -15.4540942253       -2.8354694388       -2.7095854954
 H       -15.0812510916       -4.6073388951       -3.1161117200
 H       -14.5433258179       -3.3069488339       -4.2279396924
 H       -13.7500675952       -5.0435565416       -1.1100708949
 H       -14.2535662518       -3.5297491259       -0.4069434974
 H       -12.4368787470       -3.9850091948       -0.6776071285
 H        -7.6429422574       -6.5891681284       -6.3338899096
 H        -9.3038900657       -6.9189726794       -5.6953375240
 H        -7.9707420842       -6.7529070299       -4.5439938092
 H        -6.2173596260       -4.6753723751       -4.8204290447
 H        -6.8383358219       -3.2916511391       -5.3755164864
 H        -6.5787571425       -4.6431921740       -6.4965969066
 H       -11.9998022681       -2.4358024006      -10.2921676119
 H       -13.2170222571       -3.4837456946      -10.6249489692
 H       -12.3770935811       -2.5110017292      -11.9425884481
 H       -11.1143316342       -6.2199310253      -12.3218072505
 H       -11.8784281015       -4.8755294832      -13.3320334814
 H       -12.7712907264       -5.7185333409      -12.1244584125
 H        -7.0324085547        1.3557877142      -13.1393496061
 H        -5.8946292399        2.2522848084      -12.2119879756
 H        -7.5729110224        2.0409292236      -11.5007156558
 H        -4.5931706470       -0.1895417062      -12.2013679854
 H        -5.9337503400       -1.0101358524      -13.0334148122
 H        -5.2065223250       -1.6153200420      -11.4857672837
 H        -5.2654057775       -0.6399832846       -2.9372511884
 H        -5.9778396458       -1.7202300124       -4.3120953792
 H        -6.7273270286       -0.0880893650       -3.9520349620
 H        -3.9995830648        1.3162878745       -3.7036117597
 H        -5.4475167937        1.8699321013       -4.3376633751
 H        -4.1101326032        1.9191117594       -5.4708352325
 H         0.8380282211       -3.0376915715       -3.8021723221
 H         2.1120524538       -3.9552362188       -4.7095526439
 H         0.5287017363       -3.7447392254       -5.4814283950
 H         3.7767579938       -1.8856510443       -4.9846424020
 H         2.7800123578       -1.5989404339       -3.6882242810
 H         2.9449262473       -0.2957862938       -4.8301592532
 H         4.0845360323        2.2166741983      -11.5123708689
 H         2.3659767180        2.8390212013      -11.4072706020
 H         2.8274459252        2.0408820473      -12.8693058642
 H         0.8785694133       -0.6506196505      -11.0666081243
 H         0.9050571769        0.3458269504      -12.5551598084
 H         0.4504863133        0.9789420728      -10.9625644713
 H         4.0424384223       -4.1286621195      -13.1218197590
 H         4.1919133870       -5.0977240493      -14.5392014461
 H         3.7016142070       -3.3490369001      -14.6680513738
 H         7.1066042422       -5.0902642679      -12.9354676044
 H         6.4908407220       -3.8331503722      -12.1050808494
 H         7.8605752188       -3.5385230448      -13.1855114581
 H         3.3124832405       -5.4481065803      -18.5319813373
 H         3.2975895931       -6.0560343118      -20.1402010450
 H         2.9609461624       -4.2917870643      -19.7533862597
 H         6.6561050170       -5.1108093426      -20.9778999036
 H         5.0602352445       -4.8853067889      -21.6065589075
 H         5.3666361159       -6.4791872170      -20.8652876894
 H         7.4501536004        3.1505972741      -20.6285796671
 H         8.1798587225        2.3691935282      -19.1528798578
 H         6.4753978161        2.1796325694      -19.6435560849
 H         7.3545943551        1.9098256496      -22.8030154968
 H         6.0631455229        0.7013997148      -22.4053663887
 H         7.6398423909        0.0007819247      -22.7670117903
 Na       -8.3564077915       -1.1751407656       -5.3162914258
 Na        5.8106943631       -1.5315770180      -17.3449527841
