232

 C       -22.6906989363       -7.0247169058       -3.2865575999
 C       -21.4700806736       -6.1136266293       -3.0881828086
 O       -20.6025310012       -6.4929910292       -2.2978770021
 C       -21.5303477548       -4.6707713649       -3.8414372135
 C       -20.0934655914       -4.0296863883       -3.7187718097
 O       -19.4995223278       -3.9365822384       -2.6493602552
 C       -19.4807755582       -3.3207872548       -4.9654615075
 C       -18.3788007117       -2.3307157326       -4.4917846090
 C       -17.4171372858       -3.2787470959       -3.7457639570
 O       -17.2216450938       -4.3883429876       -4.2385427575
 C       -16.6261579205       -2.8471440549       -2.4778190096
 C       -16.3226443085       -4.0376050734       -1.4677786414
 O       -17.1322455206       -4.2879602365       -0.5871304968
 C       -14.9200599478       -4.6429503109       -1.4996699362
 C       -14.8723477719       -5.9990623419       -0.9153890011
 C       -15.3101833962       -7.1124520454       -1.8344973026
 O       -16.4351563925       -7.1877060279       -2.3154503163
 C       -14.2336483343       -8.1811589489       -2.2745840162
 C       -12.8847569752       -7.3979533129       -2.5359461626
 O       -12.9765524404       -6.3582736423       -3.1843002930
 C       -11.5502593607       -7.9189544856       -2.0368277002
 C       -11.0450912367       -9.2734488166       -2.9000095964
 C        -9.8975071288       -9.8669484382       -2.1355274134
 O       -10.0166008657      -10.1570326602       -0.9458611390
 C        -8.4641241534      -10.0782584560       -2.7831075306
 C        -7.8004995377       -8.6924591828       -3.2850121615
 O        -8.1724815299       -7.6455202928       -2.7943545992
 C        -6.6038799181       -8.8066322940       -4.2567302788
 C        -5.9449417574       -7.4646350144       -4.6512174060
 C        -6.4544701203       -7.0489040522       -6.0630442292
 O        -7.2981853986       -7.6561653379       -6.6839116751
 C        -5.8155980539       -5.7435870044       -6.7881235277
 C        -4.5037003816       -6.1549037840       -7.7838773989
 O        -3.4542379325       -6.2593222685       -7.2211810423
 C        -4.7392770727       -6.2165986260       -9.3774642263
 C        -4.0233603407       -5.1205042682      -10.1051364004
 C        -4.0419028588       -5.1920306224      -11.7317189829
 O        -3.2446415370       -5.9021417255      -12.2985537567
 C        -5.1089010755       -4.2569319570      -12.5493113289
 C        -4.6036107600       -2.7649247033      -12.4107043287
 O        -4.9548141965       -2.1580042811      -11.4370947551
 C        -3.4375849098       -2.0918535701      -13.3469126146
 C        -2.6576262371       -1.1368904475      -12.4135763647
 C        -1.1200767855       -1.1866937599      -12.7005619574
 O        -0.4813286882       -0.3354410625      -13.3122859901
 C        -0.2370421984       -2.4068244111      -12.2153194348
 C         1.3526828743       -1.8676482868      -11.9084304404
 O         2.1810610813       -2.6813531689      -12.3133516946
 C         1.7856129587       -0.5467743372      -11.2000814345
 C         3.0508680415        0.0810785211      -11.9399944690
 C         3.7719982422        0.9883317177      -10.9629710550
 O         3.1671906760        1.7036265417      -10.1281788651
 C         5.2949013790        1.2453558901      -10.9444105858
 C         5.4325108687        2.5531253914      -11.9013004676
 O         5.9702424808        2.3438249579      -12.9875562923
 C         4.6997164272        3.7992801656      -11.4495217887
 C         5.6153087575        5.0620182067      -11.3450330033
 C         5.8491012684        5.8214628809      -12.6367083298
 O         5.3217069252        5.5188193356      -13.6695159115
 C         6.7271491049        7.0447455242      -12.4985403061
 C         7.3667791957        7.3600148729      -13.9503272462
 O         7.0202307780        8.2674624776      -14.6992876030
 C         8.3352541867        6.2357076606      -14.4291936377
 C         8.6304076587        6.3363772510      -15.9756923572
 C         7.3406906480        6.0569933507      -16.8552681045
 O         6.4756037321        5.3316113063      -16.4541340689
 C         7.0996581925        6.7667264397      -18.1744362660
 C         8.2595450141        6.6360026210      -19.2205364254
 O         9.3010299868        7.2615384504      -19.0991434794
 C         7.9732254130        5.8252735312      -20.5868318827
 C         9.1733188579        4.8763981023      -20.9974929532
 C         9.0396469255        3.6500754285      -20.0701962013
 O         8.2907610978        3.6800707314      -19.1562826726
 C         9.9038848762        2.2916638876      -20.2823949857
 C         9.2645888322        1.3417653848      -19.3353363976
 O         8.3998815779        0.6000523880      -19.8297675990
 C         9.6333636635        1.1470082416      -17.9004075576
 C         8.4933061428        0.2228000168      -17.2277356099
 C         7.3242096916        1.0619127766      -16.6609020069
 O         7.6386211717        2.0495115333      -16.0047597260
 C         5.8079871974        0.7012266883      -17.0668170624
 C         5.0646065282        1.9441326797      -17.5439985026
 O         4.3746815040        2.6395239012      -16.8032388035
 C         4.8107221813        2.0640679528      -19.0469669440
 C         5.7653650728       -0.5003643603      -18.0758577363
 C         5.0091228746        0.2196437890      -15.7764733893
 C         9.9216532331        1.8013145988      -21.7406390238
 C        11.3929079912        2.6085621993      -20.0138423186
 C         5.7123694694        6.3670471777      -18.7734670806
 C         7.0855778153        8.2860942213      -17.9675137876
 C         5.7214988991        8.1525648166      -12.0259045955
 C         7.8632333056        6.7587908473      -11.4939570537
 C         5.8398891478        1.5456011228       -9.6385688818
 C         6.0945689361        0.1375073971      -11.6804080606
 C        -0.6987112212       -2.9706502382      -10.8545177899
 C        -0.3010639100       -3.5518972699      -13.2085205567
 C        -5.0420004532       -4.6642212771      -13.9677731384
 C        -6.4843948695       -4.3490200243      -11.9324361990
 C        -7.0519759981       -5.0944812529       -7.5155036898
 C        -5.2497475949       -4.6735440630       -5.8090602832
 C        -7.4995010667      -10.5534808148       -1.6875874921
 C        -8.5677693064      -11.0686136670       -3.9959302793
 C       -14.1797623434       -9.2147004553       -1.1589741893
 C       -14.7571446523       -8.8981042532       -3.6502487945
 C       -15.3298649162       -2.3976039014       -3.0317265096
 C       -17.4820298646       -1.7834184873       -1.7181706672
 C       -21.9321735803       -4.7706358759       -5.3396340042
 C       -22.5685091484       -3.7324157231       -3.1177595928
 H       -22.6121548196       -7.8333359385       -2.5658937254
 H       -22.6110896855       -7.3291039378       -4.3246047742
 H       -23.6586425142       -6.3731147889       -3.2271800986
 H       -20.2039151860       -2.6929011026       -5.5313373568
 H       -19.0927180742       -4.0590832734       -5.6985276340
 H       -18.9046273431       -1.6015607786       -3.8363905949
 H       -17.8255666787       -1.8824080808       -5.3158276642
 H       -14.2517416080       -3.9521964226       -1.0817363746
 H       -14.5557127074       -4.6196843715       -2.5439845591
 H       -15.3721350784       -6.0738906670       -0.0138481806
 H       -13.7817747140       -6.1146790670       -0.5902707123
 H       -11.6115393258       -8.2118638030       -1.0170239243
 H       -10.7359503549       -7.2052186239       -2.1021316690
 H       -10.7972896415       -8.8979951364       -3.9237421408
 H       -11.8728171520       -9.9622551023       -2.9667117635
 H        -6.9683074794       -9.2727925329       -5.1843192225
 H        -5.8459856910       -9.4638137977       -3.9137023971
 H        -4.8686566899       -7.5948810324       -4.6022293014
 H        -6.1686666815       -6.6997503033       -3.9697604189
 H        -5.8502597365       -6.1591415857       -9.6874844712
 H        -4.3627661455       -7.2241512026       -9.6651070124
 H        -2.9627435595       -5.1310157537       -9.8245500292
 H        -4.5143060612       -4.3072339473       -9.7059313960
 H        -3.9244861880       -1.4252108100      -14.0658845494
 H        -2.9967286962       -3.0240898920      -13.8386219426
 H        -2.8224073696       -1.4227036035      -11.3755401825
 H        -2.9803198587       -0.0556012342      -12.4764103292
 H         1.8198192804       -0.6852999784      -10.1402627183
 H         1.0679540228        0.2892275745      -11.3101268313
 H         2.6569623100        0.6761042268      -12.7614300316
 H         3.8116458882       -0.5274226968      -12.4641701224
 H         4.2122427974        3.7501563418      -10.4154629771
 H         3.9092729150        4.1989554928      -12.2158329649
 H         6.6277983706        4.7151257810      -10.9698508451
 H         5.1083084888        5.6767439659      -10.5940462255
 H         7.7358516008        5.3659206780      -14.2316821276
 H         9.2595335852        6.2076799023      -13.8398343911
 H         9.4088117391        5.6122014274      -16.3401787873
 H         8.9658386319        7.4501116610      -16.3714121575
 H         7.9430198254        6.6118225144      -21.3116298990
 H         7.0648639720        5.2150202619      -20.5026046948
 H        10.0156356359        5.4880516892      -20.9378950622
 H         9.0704026097        4.4279300649      -22.0547378702
 H         9.5434199591        2.0931340831      -17.3525144162
 H        10.6136631699        0.6192254110      -17.7789684524
 H         8.9610406193       -0.3106667000      -16.3552974574
 H         8.3530736171       -0.6182533756      -18.0133844886
 H         5.5484623362        1.7294989342      -19.7866711140
 H         4.4891799330        3.0668479550      -19.1759939947
 H         3.8555355060        1.4235244654      -19.1847513398
 H         4.7182392232       -0.6199483905      -18.0798049286
 H         6.1984229121       -1.4960858355      -17.7947851699
 H         6.1863707871       -0.3334184428      -19.0773905721
 H         4.0203837890       -0.1187084948      -15.9692591642
 H         5.1261370339        0.9447217073      -15.0350807556
 H         5.3734072106       -0.7892743418      -15.5775185473
 H        10.4256897826        0.7646060207      -21.8359074316
 H        10.6269913881        2.5092342228      -22.2680511339
 H         8.9974868116        1.7378915814      -22.3349211309
 H        12.1319898527        1.9318938420      -20.3189104047
 H        11.4967088139        2.7006115017      -18.9254127191
 H        11.6089909462        3.5497395109      -20.4583660077
 H         4.8841544154        6.8644662418      -18.2524317807
 H         5.4173219267        5.2994804772      -18.6992686362
 H         5.7295414982        6.5328405686      -19.8353943570
 H         8.0945565356        8.5100579260      -17.9370515107
 H         6.4936280384        8.7422238739      -17.1339600838
 H         6.7023899809        8.9208067499      -18.7689635566
 H         6.1788850016        9.1837243718      -11.9500958003
 H         5.3869227917        7.9027807539      -11.0597120216
 H         4.9063211273        8.0686781711      -12.7419540173
 H         7.6679602415        6.8900002052      -10.4020150936
 H         8.7608488607        7.3736707226      -11.6984024557
 H         8.1879314660        5.6823270742      -11.5915527397
 H         6.7590973695        2.0014204362       -9.8438884884
 H         6.0967261568        0.6928584633       -9.0525121335
 H         5.2800843624        2.2447130964       -8.9730201776
 H         5.6772085763       -0.8251146334      -11.5513283922
 H         7.0360450305        0.0425298647      -11.2062849437
 H         6.4702279346        0.3822308785      -12.6607347764
 H        -0.9729702560       -2.2379579643      -10.0931094034
 H         0.1003661142       -3.6953042489      -10.4541745738
 H        -1.6574627701       -3.5762934988      -10.9240890934
 H        -1.1896608860       -4.1194998690      -13.0988958376
 H         0.5576050833       -4.1595099519      -13.0966901983
 H        -0.2624854227       -3.1730472273      -14.2498684725
 H        -4.9992058995       -3.7684152018      -14.5782326739
 H        -6.0161402325       -5.0261567496      -14.2877700952
 H        -4.2915774840       -5.4137662981      -14.2181381386
 H        -7.2474763285       -4.2550930995      -12.7687820089
 H        -6.7555391826       -3.5446168195      -11.2333898950
 H        -6.6537100806       -5.3518247582      -11.5508613229
 H        -7.5231317805       -5.9179840344       -8.0529042769
 H        -6.6974344121       -4.5232009211       -8.3865298231
 H        -7.8256259753       -4.5196114404       -6.9009319665
 H        -5.9008851228       -4.5408495199       -4.9297516184
 H        -5.1613783801       -3.7092975066       -6.2335346565
 H        -4.2807057429       -4.9187976109       -5.3538908039
 H        -7.9813950564      -11.3238107826       -1.1251245934
 H        -7.3194583164       -9.6624919412       -1.0623011270
 H        -6.5808753328      -10.8785787443       -2.2339403681
 H        -9.4409801866      -11.7349969030       -3.7555255937
 H        -7.6995488911      -11.6340732761       -4.2380421377
 H        -9.0043733315      -10.4751157618       -4.7998628637
 H       -14.1213058179       -8.7322531695       -0.1892817407
 H       -13.3229639392       -9.8816785983       -1.5453855832
 H       -15.0686020970       -9.8096367061       -1.2052225679
 H       -15.0588226783       -8.2265132020       -4.4166695425
 H       -15.5785443672       -9.5966176009       -3.2518750343
 H       -13.8741725277       -9.5128091915       -4.0322849825
 H       -14.8537023535       -3.0328817352       -3.8028762666
 H       -14.5477061360       -2.3589942267       -2.3093935758
 H       -15.3666561800       -1.4377589034       -3.4902694914
 H       -18.4897435955       -2.0947112460       -1.4350541334
 H       -17.6249880420       -0.9372749738       -2.4368239532
 H       -16.9047013068       -1.6297707739       -0.8421579501
 H       -21.1810964380       -5.3916984433       -5.8201605477
 H       -21.8980982943       -3.7690674647       -5.7481174875
 H       -22.9773161347       -5.3448004908       -5.4879721777
 H       -22.8795715060       -2.9816424400       -3.9127135666
 H       -22.1631228922       -3.2455018251       -2.2322423409
 H       -23.4272682220       -4.2918743028       -2.8545831798
 Na      -18.2911986172       -5.8237967381       -2.3828190022
 Na        6.0450068132        3.5204990410      -15.0582621502
