232

 C        10.3067627814        1.3745857614      -20.2730138394
 C         9.2720672902        0.6281204189      -21.1153091239
 O         9.6361962080       -0.0871590855      -22.0728417524
 C         7.6903083598        0.8933027787      -20.8806345399
 C         7.2280623075       -0.2787097328      -20.0402070697
 O         6.7802184264       -0.0691060194      -18.8719233233
 C         6.9850423748       -1.6058622486      -20.7414159882
 C         6.8997182591       -2.7852282339      -19.7806454015
 C         5.4007493688       -3.2812407805      -19.3159819936
 O         4.5373723845       -2.6461492613      -18.7071133628
 C         5.1168508482       -4.8868653611      -19.5156664219
 C         6.0474445317       -5.6156901386      -18.4029336596
 O         7.1255442391       -5.9228875200      -18.7809274360
 C         5.4952525660       -5.9683033811      -16.9808617143
 C         6.4355699678       -5.6054051739      -15.8115505814
 C         6.3260432027       -4.1540636922      -15.5820965172
 O         6.6194935520       -3.4759018714      -16.5537428868
 C         5.7909016482       -3.5726674928      -14.2558800568
 C         5.6836277392       -2.0167987245      -14.2445530717
 O         5.6404668939       -1.3365110288      -15.2528548757
 C         5.7255893591       -1.4082375304      -12.8645447524
 C         4.7293607344       -0.1274384455      -12.8206046704
 C         3.3311485509       -0.6045514527      -12.0658139169
 O         3.0417176400       -1.7667426018      -11.9448605430
 C         2.5925575333        0.5885542881      -11.4508774265
 C         2.7878730572        0.4984656635       -9.8177111458
 O         2.8550772835        1.4995610246       -9.1691233920
 C         2.8746159510       -0.9151428844       -9.0694292997
 C         2.8718276678       -0.8740643234       -7.5029564402
 C         1.7918198705       -1.8679222837       -6.9314522518
 O         1.2874861581       -2.7328130485       -7.6000045021
 C         1.5123512245       -1.8306663830       -5.3350871235
 C         0.4224139414       -0.8848082189       -5.0307544721
 O         0.6562231772        0.0857822719       -4.4171953116
 C        -0.9718960997       -1.2146602876       -5.4721771666
 C        -2.0905652617       -0.3497189744       -4.9341512486
 C        -3.5089603659       -1.0943737779       -5.0609350979
 O        -3.6225463012       -2.2597816924       -5.4297488372
 C        -4.7231228469       -0.0977403342       -5.0378187249
 C        -5.3440219884       -0.2841650718       -6.4925448225
 O        -6.4461726771       -0.7708815205       -6.7292652418
 C        -4.6012369744        0.2850328277       -7.6807990761
 C        -5.0997306471       -0.3210350545       -9.0093646492
 C        -5.9820495319        0.6690330922       -9.8380730796
 O        -6.4473404809        1.6431473635       -9.2958976822
 C        -6.4757213294        0.1723968906      -11.2459896856
 C        -7.9110589943       -0.4215384660      -11.1189822240
 O        -8.7096803547        0.1903125991      -10.4020637931
 C        -8.2234974429       -1.6992768200      -11.8530369726
 C        -9.6965094308       -2.1661872929      -11.6420076506
 C        -9.8634223187       -3.7436324181      -11.7265368930
 O        -8.9780996153       -4.4849511913      -12.1122601163
 C       -11.2601633790       -4.3965300918      -11.2883375029
 C       -11.2246213506       -5.0719600955       -9.8788684684
 O       -11.7000925920       -6.1637622041       -9.6733376797
 C       -10.4201437436       -4.2356816451       -8.8714777865
 C       -10.0343626015       -4.9573142162       -7.6393459784
 C        -9.0419687139       -4.0744692775       -6.7258684043
 O        -9.2113342318       -2.9079140852       -6.7861478331
 C        -8.2717099098       -4.7577072073       -5.5531662699
 C        -8.9446573329       -4.1589195449       -4.1256245483
 O        -8.7006062472       -3.0147064074       -3.8187206144
 C        -9.7185818354       -5.0146991787       -3.1466903347
 C       -10.7317625190       -4.1858503507       -2.3565017377
 C       -12.0904312065       -4.0371238629       -3.1331258482
 O       -12.1699916641       -4.2108573238       -4.3346843836
 C       -13.3026115282       -3.4190748976       -2.3711368802
 C       -12.8315903618       -1.8726051871       -2.5377891408
 O       -12.2240546496       -1.3637800050       -1.6082436721
 C       -13.3228115418       -1.0820610905       -3.7800003065
 C       -12.5936065155        0.3643152556       -3.9365531607
 C       -11.0548068996        0.3735201422       -4.2527277917
 O       -10.3659726073       -0.5975293514       -4.1667024521
 C       -10.4788087573        1.6982585338       -4.7879039922
 C       -10.3447346969        1.2504102208       -6.3753450460
 O        -9.3632365987        0.5741372173       -6.6683530988
 C       -11.3265907752        1.8172784968       -7.4843730726
 C       -10.7476565267        2.0771930080       -8.8339495676
 C       -10.1978481756        3.4782721188       -8.8206049580
 O       -10.0957418775        3.9941266605       -7.7137822846
 C        -9.5621561615        4.2131342728      -10.0162347554
 C        -7.9701671890        4.2997667157       -9.7076856656
 O        -7.2536920301        4.0699098561      -10.6461156038
 C        -7.5059772636        4.8899550603       -8.3855538239
 C        -9.7893403220        3.6220585588      -11.4267374965
 C        -9.9929472570        5.7098280793       -9.9580474889
 C       -11.3148254098        2.9666145500       -4.6618542125
 C        -9.0286215737        1.8833390945       -4.1909365222
 C       -14.6347552687       -3.7938011451       -3.0297963830
 C       -13.3558808224       -3.9612005812       -0.8734504771
 C        -8.3931686966       -6.2810268390       -5.6077306890
 C        -6.8026998078       -4.2109517825       -5.5658340279
 C       -12.3978317222       -3.3647643819      -10.9963300058
 C       -11.6337271097       -5.4564321237      -12.3646129282
 C        -6.4535693657        1.5617533265      -12.0971123369
 C        -5.5151399929       -0.7955536728      -12.0331533192
 C        -5.6942801138       -0.7605566436       -3.8702614208
 C        -4.4343868677        1.4020916480       -4.5738294961
 C         1.2737020070       -3.2074906545       -4.6976000908
 C         2.7861662801       -1.1601507150       -4.6082749191
 C         2.9047343622        2.0642366577      -11.8767797977
 C         1.0721005565        0.3452384765      -11.6722492908
 C         4.3359373405       -4.0736778840      -14.0803390382
 C         6.7543349835       -4.0329217983      -13.1741578929
 C         3.6005589703       -5.1810140453      -19.3248905585
 C         5.5808212196       -5.2515602606      -20.9693267943
 C         7.4489973395        2.1830838058      -20.0804218889
 C         7.0019010952        0.9567251208      -22.2934672850
 H        10.2356515382        1.2874338629      -19.2266898860
 H        10.3326275419        2.4096865930      -20.5219780924
 H        11.3478512569        1.0507506271      -20.5779847124
 H         7.7173592548       -1.7553099225      -21.5359044786
 H         5.9756801520       -1.3727599615      -21.1508416105
 H         7.6193021947       -2.6410879818      -18.9176121298
 H         7.3204178308       -3.6127578526      -20.2470720694
 H         5.5291542038       -7.0592873640      -16.9775119486
 H         4.4884324638       -5.5910392026      -16.7794939778
 H         7.3849063305       -5.8468391705      -16.1871144303
 H         6.2072525978       -6.3873979825      -14.8860876859
 H         6.7436975851       -1.0035906303      -12.8455525333
 H         5.6050246069       -2.1557827196      -12.0734372393
 H         4.3929675819        0.2847514833      -13.7963205876
 H         5.2625588902        0.5562330759      -12.2017469816
 H         3.7498199714       -1.4540777392       -9.5281387611
 H         1.9999612346       -1.3772448546       -9.4583679084
 H         2.6347869736        0.1221853017       -7.0936930646
 H         3.8327887384       -1.2739974531       -7.1839614978
 H        -1.1009517901       -2.2598681782       -5.1177136332
 H        -1.0478809437       -1.3722719922       -6.5803928656
 H        -2.1817777072        0.5363375815       -5.5068682073
 H        -1.8975445920        0.0278330938       -3.8482278693
 H        -3.4813917077        0.2233284333       -7.4734514525
 H        -4.9971617525        1.3773586494       -7.8559110548
 H        -5.6272639417       -1.1907605142       -8.8740222877
 H        -4.2400871146       -0.5438133595       -9.6628240249
 H        -7.5362786113       -2.4521389485      -11.4443951221
 H        -8.1273603909       -1.5136968030      -12.9026328803
 H       -10.3524433278       -1.7686947951      -12.4014749558
 H       -10.1298269648       -1.7251935511      -10.6307655047
 H       -10.8302622287       -3.2406696796       -8.6394995839
 H        -9.5262245545       -4.0054401670       -9.3758629804
 H        -9.5138635005       -5.9023600441       -7.8696988753
 H       -10.8862792633       -5.1906677494       -7.0493471274
 H        -8.9427164917       -5.4705129624       -2.5298899603
 H       -10.0964608727       -5.8270050559       -3.7100700604
 H       -10.1725401106       -3.2479006161       -2.1000481608
 H       -10.8585605212       -4.6859891623       -1.4197166576
 H       -14.4871911396       -1.0646357749       -3.6845066577
 H       -13.0521848761       -1.7719080986       -4.6662789185
 H       -12.7167892768        0.8501493714       -2.9451926681
 H       -13.1741889709        0.8446797762       -4.6918531691
 H       -11.8051216882        2.7042561963       -6.9806860981
 H       -12.1466406559        1.0361059722       -7.5722878005
 H       -11.4150164064        2.0060084567       -9.6571635180
 H        -9.8718635961        1.3318005160       -8.8460043775
 H        -8.2734594635        5.2978790272       -7.6950803920
 H        -6.9066642584        5.7301756969       -8.5457886886
 H        -7.0961584524        4.0394999023       -7.8945820108
 H       -10.8341638962        3.8435218568      -11.8776921648
 H        -9.6796593868        2.5551495835      -11.2982008661
 H        -9.0411122476        3.9830641290      -12.0721185867
 H       -11.1094293715        5.6303076270       -9.8863078344
 H        -9.5954106140        6.3283780518      -10.7138086260
 H        -9.8386691647        6.1755168569       -8.9551310373
 H       -10.8046529402        3.7559153274       -5.1430550233
 H       -11.3220033466        3.2185144603       -3.6812016522
 H       -12.3156839345        2.7780077033       -5.0191756405
 H        -8.3606399689        2.3794785514       -4.8430163736
 H        -8.6687662598        0.9556610297       -3.8022234264
 H        -9.2001590918        2.5339442911       -3.2846235351
 H       -15.4704676854       -3.1924949730       -2.5764343704
 H       -14.7992031303       -4.8985711668       -2.7828001679
 H       -14.6317219368       -3.6686771330       -4.1350687756
 H       -13.1256451212       -4.9948282592       -0.8336766086
 H       -14.4282920003       -3.9202398511       -0.5848635479
 H       -12.6272370513       -3.4441522150       -0.2471154119
 H        -8.0401513852       -6.6281263967       -6.5938729758
 H        -9.4430603658       -6.5197933997       -5.4274293160
 H        -7.8219128659       -6.7809946795       -4.8010869750
 H        -6.2236143500       -4.4040512752       -4.7320967539
 H        -6.6140425404       -3.1115105084       -5.5446106816
 H        -6.3342624880       -4.7572298884       -6.4157038757
 H       -12.2388189305       -2.7230626670      -10.0841625626
 H       -13.3299373735       -3.8551150375      -10.6935303710
 H       -12.4477809567       -2.6903026667      -11.8517395453
 H       -11.0386126090       -6.3226241798      -12.3538387729
 H       -11.6466108809       -4.9645021805      -13.3163039010
 H       -12.6693103797       -5.7474787567      -12.2649879382
 H        -6.5773478104        1.3499093464      -13.1904906825
 H        -5.4876135265        2.0525829178      -11.9834623611
 H        -7.2482214282        2.1283229286      -11.6787871742
 H        -4.5149884493       -0.3113001397      -12.2995533397
 H        -5.9259431259       -1.0643617220      -12.9627655259
 H        -5.3059227412       -1.7545661580      -11.5176090431
 H        -5.1072384499       -0.9979117268       -2.9974511942
 H        -6.1822742320       -1.6386932278       -4.3460912617
 H        -6.4557424170       -0.0256385067       -3.5851235500
 H        -3.9888879124        1.3856692292       -3.5864975526
 H        -5.2793027393        2.0548231132       -4.4540998600
 H        -3.8169963265        1.9218678123       -5.3229668569
 H         1.0106544145       -3.2496729684       -3.5808828187
 H         2.0566880827       -3.9016570677       -4.8974937785
 H         0.4061128926       -3.6994302851       -5.2500620377
 H         3.6379113649       -1.7064407292       -5.0878763466
 H         2.8979617119       -1.4706164214       -3.6338169737
 H         2.7748316597       -0.0428133883       -4.7588264590
 H         4.0441603337        2.2206937955      -11.9627813364
 H         2.4636648655        2.6973790320      -11.2012886671
 H         2.3282308466        2.3189532680      -12.7638561960
 H         0.8220483628       -0.6266037617      -11.2548202328
 H         0.7509224291        0.4075680539      -12.7102170362
 H         0.4410816704        1.0478917534      -11.1172118466
 H         4.0371795757       -3.7415334625      -13.0594825521
 H         4.3669477769       -5.1627857937      -13.9994645232
 H         3.7031219052       -3.8039167538      -14.8502454300
 H         7.2013810611       -5.0030943053      -13.3249108110
 H         6.3749607737       -4.2156905356      -12.1775358297
 H         7.6631720235       -3.3592579883      -13.1490694552
 H         3.2386907797       -5.1012992547      -18.2482906225
 H         3.3529427742       -6.1975555591      -19.7060628362
 H         3.1505086785       -4.4802462143      -19.9267959250
 H         6.5264683595       -4.9281164526      -21.0740942983
 H         4.9511917114       -4.6213552043      -21.6157316851
 H         5.4155834951       -6.3201449496      -21.1653448044
 H         7.6288773002        3.0583257880      -20.6706945489
 H         7.9861465309        2.2954163671      -19.0868920561
 H         6.3904673552        2.3566224683      -19.8655705616
 H         7.0021582023        2.0081567817      -22.6109389937
 H         5.9746792799        0.5347892479      -22.2439397772
 H         7.6021932137        0.1501810879      -22.8710009760
 Na       -8.3817124511       -1.2907536272       -5.5215204742
 Na        5.6725892092       -1.5595323326      -17.4130757281
