232

 C        10.2638959154        1.5890581273      -20.3353665962
 C         9.2784034849        0.8296626326      -21.2143042486
 O         9.5526198936        0.0413925302      -22.0853736621
 C         7.7334522422        0.9115457643      -20.8590007536
 C         7.0872539255       -0.2804640618      -20.0182607450
 O         6.8114295825       -0.1138638357      -18.8317397713
 C         6.8456215745       -1.6168129155      -20.7654766845
 C         6.8392049454       -2.8757298050      -19.8025542734
 C         5.5547049380       -3.3869846508      -19.4090753559
 O         4.6934920574       -2.6507730997      -18.9901645086
 C         5.1708494332       -4.8518799663      -19.5658585973
 C         5.9746007203       -5.6705545322      -18.4542089527
 O         7.1459394411       -5.9435682837      -18.6309261753
 C         5.3612992352       -6.2285801002      -17.0918518269
 C         6.4167086436       -5.7300212772      -16.0086836093
 C         6.2452320257       -4.1813343136      -15.7972291239
 O         6.6566110336       -3.4267397548      -16.6482125659
 C         5.7841953913       -3.5621485527      -14.3296619757
 C         5.6933216784       -1.9231304961      -14.2637917802
 O         5.6058750487       -1.1944901018      -15.2268650982
 C         5.7211115435       -1.3402890622      -12.8140259366
 C         4.7400483245       -0.1174458015      -12.5978810413
 C         3.3150323515       -0.5631555430      -12.0080486728
 O         3.0727021444       -1.7563707757      -11.9674605270
 C         2.4369029822        0.4688905149      -11.3937254805
 C         2.6772216229        0.4784224152       -9.7818958519
 O         2.8763239599        1.5376091926       -9.2883921701
 C         2.8035976231       -0.9771480824       -9.0437124556
 C         2.9030272316       -0.9104688951       -7.4484868628
 C         1.9522626027       -1.9440497628       -6.8579714160
 O         1.2843998560       -2.6979449630       -7.5302002875
 C         1.6659316569       -1.8737725532       -5.3252924121
 C         0.3801047711       -0.8784383209       -4.8752993561
 O         0.3991910602        0.2027668080       -4.2553197408
 C        -0.9485803313       -1.3065184778       -5.6342378504
 C        -2.0429198603       -0.4531645124       -5.0491884386
 C        -3.4898777768       -1.0310354852       -5.1203617550
 O        -3.5320137248       -2.2286387370       -5.2321034282
 C        -4.6989441543       -0.1768360831       -5.0165107519
 C        -5.4271971222       -0.2348921521       -6.4242966937
 O        -6.3954981187       -0.9605306136       -6.6215763575
 C        -4.5640267506        0.2324464002       -7.7292290843
 C        -5.0878493388       -0.3089982475       -9.0654349762
 C        -6.0679024112        0.5923521772       -9.8075410230
 O        -6.3741522317        1.6524292907       -9.3900198431
 C        -6.4490854349        0.2604494140      -11.2914920476
 C        -7.8500145370       -0.4366077483      -11.1813990802
 O        -8.6716369903        0.0423283825      -10.3479637370
 C        -8.1641690903       -1.7883550459      -11.8513356555
 C        -9.6959291188       -2.1965529745      -11.5134033740
 C        -9.9235276038       -3.7070713249      -11.6654393228
 O        -8.9602629745       -4.3669003541      -12.0098580124
 C       -11.2692159216       -4.3677949531      -11.3325263106
 C       -11.1143329079       -5.0687470673       -9.8947893909
 O       -11.7730409013       -6.0562842407       -9.6088296795
 C       -10.3414767477       -4.2730155885       -8.8058659683
 C        -9.9875744839       -4.9874850043       -7.5049802427
 C        -9.1159488809       -4.0473924526       -6.5902504186
 O        -9.1371433137       -2.8696316692       -6.9844594936
 C        -8.2430449825       -4.6307699447       -5.4907028626
 C        -8.8663701428       -4.0714206500       -4.1715448372
 O        -8.6972867743       -2.8934312877       -3.8604232966
 C        -9.8163490992       -4.9389892976       -3.2753429025
 C       -10.7764219490       -4.1436484423       -2.4365267651
 C       -12.0462933598       -4.0648124395       -3.1785709159
 O       -12.1263318804       -4.3594520760       -4.3489969690
 C       -13.2051893009       -3.4484023492       -2.3249222785
 C       -12.9159961729       -1.8597839175       -2.4760316686
 O       -12.2193621473       -1.2428356293       -1.6789444860
 C       -13.1814563427       -1.1173353120       -3.8206675664
 C       -12.5444105870        0.3111344227       -3.8331773911
 C       -11.0751435415        0.3315270927       -4.1886178845
 O       -10.3488488009       -0.6364900197       -4.1079089146
 C       -10.5741922044        1.7219331055       -4.8555124693
 C       -10.3664485259        1.3711464432       -6.3487035899
 O        -9.4252778433        0.5929288618       -6.7064617988
 C       -11.4231068609        1.7414495850       -7.3687705250
 C       -10.8717503255        2.0702616394       -8.8062399153
 C       -10.1690183795        3.5174307200       -8.6978132638
 O       -10.0676434055        3.9950022221       -7.5463114633
 C        -9.5882651896        4.2559198199       -9.9560327033
 C        -7.9666173402        4.3362213980       -9.7457462152
 O        -7.1783807043        4.1208081944      -10.7269781725
 C        -7.4124769634        4.6910875999       -8.4069366420
 C        -9.8310959834        3.5393903480      -11.2533360662
 C        -9.9465177726        5.7610935653      -10.0532947588
 C       -11.4618815047        2.9532646777       -4.6532190246
 C        -9.1907440875        2.0894773670       -4.2735585872
 C       -14.5137625508       -3.9470470724       -2.9951169497
 C       -13.2174176599       -3.7737715276       -0.7420661232
 C        -8.2962446764       -6.1592886386       -5.5327588988
 C        -6.7622034639       -4.2114377423       -5.6175293244
 C       -12.5096827545       -3.4945532030      -11.2320347255
 C       -11.5565561888       -5.4734402945      -12.3787049451
 C        -6.2850712137        1.4506236192      -12.1547901317
 C        -5.4692369031       -0.8490087235      -11.9145566718
 C        -5.6461772308       -0.7824943355       -3.9152307892
 C        -4.3699229047        1.2426022879       -4.6815423452
 C         1.2978529271       -3.2394242080       -4.7279509395
 C         2.9074244324       -1.1695051401       -4.5176594437
 C         2.7672662712        1.9084783680      -11.9219112526
 C         0.9502201730        0.2976022332      -11.8012139955
 C         4.3142942200       -4.0982832232      -13.9754684765
 C         6.6629676807       -4.1237642934      -13.2118058466
 C         3.6970739320       -5.0856425921      -19.1771232928
 C         5.4556969428       -5.2621355038      -21.0125975290
 C         7.4056542123        2.2529171632      -20.1252051886
 C         6.9368632075        0.9780793673      -22.1529622412
 H         9.9937730839        1.4082644439      -19.3182446584
 H        10.4064095043        2.6037154629      -20.5066338536
 H        11.2475044865        1.2124995554      -20.4764577388
 H         7.6197077909       -1.6180002761      -21.5506235599
 H         5.8381832608       -1.5144376698      -21.2139354135
 H         7.3936994500       -2.5770572290      -18.8983619509
 H         7.4214507973       -3.7629283974      -20.1734773050
 H         5.4520805274       -7.3415021954      -17.1833417049
 H         4.4382953754       -5.9288505601      -16.7312855120
 H         7.4374107507       -5.9956138327      -16.3073851604
 H         6.1150006407       -6.2496292132      -15.1497471304
 H         6.7586277286       -0.9468963780      -12.6590028760
 H         5.5045077264       -2.1785017076      -12.1121402515
 H         4.4506521749        0.4618390375      -13.4837167834
 H         5.3211316959        0.4356771078      -11.8157570593
 H         3.6934207886       -1.3278636606       -9.4783849767
 H         1.9638996013       -1.6031003400       -9.4452099455
 H         2.7329397353        0.0907264306       -7.0531196024
 H         3.8936505373       -1.3877788499       -7.1869915980
 H        -1.0571404383       -2.4401213947       -5.5157408387
 H        -0.8322318966       -1.2025799204       -6.7273983114
 H        -1.9615716727        0.5782967578       -5.4571605547
 H        -1.8309458984       -0.2747166922       -3.9969827106
 H        -3.5304190447       -0.1247601110       -7.5189844759
 H        -4.6295962581        1.3237196353       -7.8550618835
 H        -5.5343559067       -1.2795774307       -8.9099828775
 H        -4.2951984835       -0.4487580069       -9.7160118895
 H        -7.5285371906       -2.5059450334      -11.3292851733
 H        -8.0893152216       -1.7184420121      -12.9225273087
 H       -10.4285615103       -1.7212338218      -12.1671613649
 H        -9.9513177836       -1.8353706402      -10.4750040798
 H       -11.0508253507       -3.4796142428       -8.5770158781
 H        -9.4553083365       -3.7709253550       -9.1744068799
 H        -9.4195533397       -5.9263028534       -7.7032081222
 H       -10.8672803308       -5.2826853725       -6.9427192003
 H        -9.1885145649       -5.5257060249       -2.6670442683
 H       -10.1895057872       -5.7101129535       -4.0078353523
 H       -10.2049742947       -3.1725561193       -2.2692548692
 H       -10.8610690706       -4.5613641844       -1.4480655469
 H       -14.3049977273       -1.0293957694       -3.8808235493
 H       -12.8161774813       -1.8040886610       -4.6259373206
 H       -12.7402161213        0.6306196208       -2.7568567562
 H       -13.1807333266        0.8780793872       -4.5462096304
 H       -12.0277059561        2.5565796437       -6.9599125912
 H       -12.0497238435        0.8737867590       -7.3579159927
 H       -11.7293695486        2.2952920364       -9.5578650188
 H       -10.1234937496        1.3059908881       -9.1076590424
 H        -8.1115027330        5.0892471331       -7.6486263651
 H        -6.8384357040        5.5851681368       -8.5938037844
 H        -6.9161134824        3.8054426872       -7.9829197644
 H       -10.7485561715        3.9688832252      -11.7424632225
 H       -10.0298483668        2.4698192878      -11.0679490098
 H        -8.9770174626        3.7001646945      -11.9272304404
 H       -10.9631195479        5.9112850285      -10.3154341332
 H        -9.2174255928        6.2336364726      -10.6627306730
 H        -9.9573417709        6.2231329657       -9.0661105460
 H       -10.9669194782        3.7802976996       -5.0875123658
 H       -11.5005273460        3.1107575947       -3.5909272969
 H       -12.3952865906        2.7711608272       -4.9930172616
 H        -8.9260971964        2.9912187614       -4.8618194901
 H        -8.4362615769        1.3120836381       -4.2757935606
 H        -9.3256916259        2.4708788370       -3.2458154933
 H       -15.3537575338       -3.4310698021       -2.5704802097
 H       -14.6551280835       -5.0303907759       -2.7671957643
 H       -14.4862272695       -3.7779996378       -4.0775568875
 H       -12.6370851785       -4.5827992815       -0.3149407169
 H       -14.2309261577       -4.0030345427       -0.6343639431
 H       -12.9455189217       -2.8431744983       -0.2432161737
 H        -7.9995704453       -6.4869113289       -6.5581029680
 H        -9.3641797455       -6.4589271181       -5.3150250901
 H        -7.6441514188       -6.6405069192       -4.8873717208
 H        -6.2875014565       -4.2790922410       -4.6274512826
 H        -6.4874617180       -3.1892011685       -5.7428414001
 H        -6.2183898610       -4.9397244584       -6.2837796545
 H       -12.5680787376       -2.7986760614      -10.3497367816
 H       -13.3930425528       -4.1663451409      -10.9689214766
 H       -12.6190792853       -2.9820527147      -12.1958390432
 H       -10.8016398379       -6.2253694864      -12.3574453350
 H       -11.6291209452       -5.0515462799      -13.3573927231
 H       -12.5293794877       -5.9097725752      -12.2528224350
 H        -6.4918871600        1.1756942973      -13.1607212936
 H        -5.2195495122        1.7839655657      -12.0671830472
 H        -6.9630985793        2.2087391785      -11.7917140902
 H        -4.3651177968       -0.5954797854      -12.0280596524
 H        -5.7012807684       -1.1395660476      -12.9071331027
 H        -5.5835485180       -1.7563122850      -11.3330814310
 H        -5.0268011690       -0.9429661453       -3.0535733598
 H        -6.1452164238       -1.6480289138       -4.2755161676
 H        -6.3250062099       -0.0350478916       -3.6019183141
 H        -3.9728255248        1.4086122714       -3.6754435260
 H        -5.1799546842        1.9540750067       -4.7914898422
 H        -3.7272646973        1.5252000770       -5.4201480545
 H         1.1129506535       -3.2542387135       -3.7096791716
 H         2.0823767004       -3.9764686158       -4.9865478525
 H         0.4445692903       -3.6400854119       -5.1846490446
 H         3.8634630958       -1.7577698809       -4.6328902792
 H         2.7462308684       -1.1983019633       -3.3997909835
 H         2.9473136760       -0.1293541785       -4.9623089367
 H         3.8192565628        1.8726553513      -12.1594372947
 H         2.5092800346        2.6410695116      -11.1739454189
 H         2.1348025955        2.2371653254      -12.7017756342
 H         0.4957815407       -0.6687341201      -11.5586612451
 H         0.7677324896        0.5260701881      -12.8382828186
 H         0.3752972955        1.0760270576      -11.2656540152
 H         3.8772567554       -3.4230568505      -13.1838139360
 H         4.4123565385       -5.0323268555      -13.4303759863
 H         3.7104164426       -4.3538306225      -14.8405137459
 H         7.1284538354       -5.0591685836      -13.3919240582
 H         6.1328996366       -4.4056851661      -12.2543965160
 H         7.4869046518       -3.4779233714      -12.9656990755
 H         3.3230041048       -4.5669377627      -18.2375004506
 H         3.6024393038       -6.1468212247      -19.0281212939
 H         3.1428270439       -4.8589658215      -20.1250576471
 H         6.5667478208       -5.2047728277      -21.1547083264
 H         4.9334526930       -4.5621504227      -21.6931050283
 H         5.0362103604       -6.1983381771      -21.0789018913
 H         7.9041972206        3.1184064375      -20.5736902296
 H         7.7082344232        2.2507266928      -19.1344487095
 H         6.4202313726        2.6053440696      -20.1926000805
 H         6.8913871368        2.0426297696      -22.4052435709
 H         5.9360360554        0.6255284186      -21.8137573412
 H         7.2647443637        0.2801501261      -22.9201135856
 Na       -8.4463764511       -1.2986516398       -5.6236404313
 Na        5.6566545606       -1.3652399542      -17.4367168244
