232

 C        10.1627689336        1.6640499046      -20.4367988401
 C         9.2114841748        0.7973509406      -21.1535102609
 O         9.5563073844        0.1947410543      -22.0870494602
 C         7.5098829020        1.0268719181      -20.8404707109
 C         7.1078288265       -0.2108003311      -20.0222330915
 O         6.9426298853       -0.1061783924      -18.8525875138
 C         6.8379172589       -1.5901851294      -20.7200864621
 C         7.0109013069       -2.8809837528      -19.8342513193
 C         5.5590014936       -3.3667775262      -19.4320707250
 O         4.7366265686       -2.5237787220      -19.1823846722
 C         5.0929072643       -5.0589365028      -19.5602407939
 C         6.0775107738       -5.8473477609      -18.5025566059
 O         7.3013689025       -5.9247772931      -18.6678448546
 C         5.3808970529       -6.2834336083      -17.2431570973
 C         6.1941006707       -5.6651211015      -15.9937076549
 C         6.2252449945       -4.1148636675      -15.8055183704
 O         6.6037566242       -3.4135880645      -16.7404980809
 C         5.7636585999       -3.5649545643      -14.3859793125
 C         5.6267413767       -1.9935210472      -14.2204680722
 O         5.5391291208       -1.1432589257      -15.0977831497
 C         5.7012611401       -1.3529588739      -12.7539127779
 C         4.8241808911       -0.2149119595      -12.4653082877
 C         3.3805896377       -0.6066507352      -12.0054291268
 O         3.0633148672       -1.8048958734      -12.0164273334
 C         2.3513011967        0.4538323094      -11.3697085474
 C         2.6225056646        0.4221779840       -9.7948180149
 O         2.8584817925        1.4608008391       -9.1734504177
 C         2.7157358695       -0.9090797054       -9.1174820380
 C         2.9069128599       -0.8246342174       -7.5797812295
 C         1.9403155604       -1.8305379597       -6.7557436813
 O         1.2812923080       -2.6513989314       -7.3446293630
 C         1.6978571757       -1.7177009161       -5.2305504644
 C         0.4579571647       -0.8886069215       -5.0512952609
 O         0.3480333492       -0.0138331294       -4.1916890706
 C        -0.9221052122       -1.2913874866       -5.7005736786
 C        -2.0080278277       -0.4379667034       -5.1345559462
 C        -3.3601705380       -1.1687538974       -5.2240252520
 O        -3.5258990969       -2.3614320142       -5.0664300014
 C        -4.6760298516       -0.1462013360       -5.1186873369
 C        -5.3839333250       -0.4520891731       -6.4383167362
 O        -6.4092316394       -1.0462447824       -6.5872156515
 C        -4.6174289799        0.1581749045       -7.6253748139
 C        -5.0121229073       -0.3435999413       -8.9863710163
 C        -5.9226757297        0.6071917873       -9.8208780891
 O        -6.3475175004        1.6666117942       -9.3962342974
 C        -6.4052910925        0.1436024954      -11.3193252480
 C        -7.8610505235       -0.4926371251      -11.1031599166
 O        -8.6405533177        0.0230914382      -10.3720180526
 C        -8.2730317212       -1.8088168908      -11.8086834944
 C        -9.7318590573       -2.1286071523      -11.4486930761
 C        -9.8951622360       -3.6648212010      -11.6455470406
 O        -8.9455244701       -4.3728708505      -11.9205143752
 C       -11.2755295417       -4.3854032406      -11.3380015015
 C       -11.1647432775       -5.0435027018       -9.8424423533
 O       -11.7772853131       -6.0187095766       -9.5319278875
 C       -10.3420396135       -4.2603875841       -8.8021518536
 C       -10.0030120789       -5.0409894969       -7.5348157776
 C        -9.1499870709       -4.0501624662       -6.7099436429
 O        -9.0203070882       -2.8783479934       -7.0480452175
 C        -8.2883817609       -4.6277301483       -5.4971997551
 C        -8.8013148787       -3.9362293660       -4.2594645283
 O        -8.6516089823       -2.7857776367       -3.9133962382
 C        -9.6198351173       -4.9439747111       -3.3593410742
 C       -10.5797211231       -4.1626776009       -2.4586766699
 C       -11.9596645527       -4.0793473891       -3.0829875001
 O       -12.2358594256       -4.4177490372       -4.2167214402
 C       -13.2477075837       -3.3343424608       -2.3015159547
 C       -12.8729072005       -1.8512412749       -2.5031339342
 O       -12.3071550021       -1.2896067697       -1.5978424685
 C       -13.0860803873       -1.1500884557       -3.9277641413
 C       -12.5874200143        0.2484327996       -3.7664027721
 C       -11.1510699327        0.3466071684       -4.2336023474
 O       -10.3467037132       -0.5947651137       -4.1072045923
 C       -10.6338311878        1.7861188323       -4.9004687319
 C       -10.4294175978        1.3277829004       -6.3989295804
 O        -9.4980831912        0.6516995837       -6.7407685475
 C       -11.5357416068        1.6427578971       -7.3933086808
 C       -10.9268438932        2.2587868409       -8.7371380530
 C       -10.1327911242        3.5749730970       -8.5709812786
 O       -10.0474409524        4.0770619249       -7.4784137287
 C        -9.4791284494        4.1734822797       -9.8470446981
 C        -7.8903414670        4.3162462790       -9.7612126121
 O        -7.2712127335        4.2041465664      -10.7731862294
 C        -7.2157043287        4.5377300747       -8.3903509885
 C        -9.9223691516        3.4088534850      -11.1534464248
 C        -9.9556571871        5.7163900962      -10.0334724400
 C       -11.6826827718        2.8668674991       -4.6126619138
 C        -9.2083718219        2.2072386795       -4.2977466618
 C       -14.4833112976       -3.9293966435       -2.9512251372
 C       -13.0999365044       -3.5548675240       -0.8244606229
 C        -8.1665272758       -6.1936142084       -5.3793285527
 C        -6.7889472577       -4.1785650287       -5.6698879496
 C       -12.5512388787       -3.4952528267      -11.4709282853
 C       -11.4086671620       -5.5453042224      -12.3694690560
 C        -6.2773504183        1.3786122477      -12.2802951210
 C        -5.3407357037       -0.9997618653      -11.7704664537
 C        -5.6243077192       -0.7517018874       -3.9968210112
 C        -4.3714474428        1.3309803981       -4.7780165987
 C         1.4665679193       -3.1741878177       -4.7436330381
 C         2.9977899191       -1.2672551992       -4.4069462806
 C         2.6783832323        1.8998863978      -11.9251081030
 C         0.8292356707        0.0703081558      -11.7772823851
 C         4.2597273592       -4.0857189647      -14.0509732472
 C         6.7106353838       -4.1313842774      -13.3122228963
 C         3.5560825772       -4.9919451976      -19.1853401624
 C         5.3892992863       -5.4786755342      -20.9948912209
 C         7.3576339559        2.3754819591      -19.9896977791
 C         6.7651234456        0.9957612682      -22.2375743901
 H         9.9975921132        1.7636807806      -19.3669715588
 H        10.1352221623        2.6548278035      -20.9413070082
 H        11.1454488031        1.4470428628      -20.6350105810
 H         7.4368111069       -1.5223268709      -21.6436582844
 H         5.7724203224       -1.6106863194      -21.0145353677
 H         7.5355841582       -2.5840104227      -18.9446395739
 H         7.6424809142       -3.7455310242      -20.2707739615
 H         5.3476435576       -7.3587743867      -17.1891147848
 H         4.3723205859       -5.8517672964      -17.1236777711
 H         7.2767564438       -5.9399116577      -16.1681726947
 H         5.7801461563       -6.1161408640      -15.1750299050
 H         6.7500444130       -1.0338688597      -12.5808286335
 H         5.4182503895       -2.1929949415      -12.0978651268
 H         4.5360235026        0.3988815874      -13.3201079760
 H         5.3446156295        0.3435321958      -11.6384567987
 H         3.5301450502       -1.3212408386       -9.6640179623
 H         1.7885137195       -1.4814460003       -9.4053750053
 H         2.6083981594        0.1933908007       -7.3146535269
 H         3.9355799859       -1.1305263370       -7.2699629742
 H        -1.0570584556       -2.3694038188       -5.5238000866
 H        -0.9682956486       -1.2175052384       -6.7865198047
 H        -2.1030175138        0.5908170790       -5.6019495893
 H        -1.8871023211       -0.1784663309       -4.1285276143
 H        -3.5928008020       -0.0985204043       -7.4797713403
 H        -4.7410453361        1.1819935645       -7.4964288931
 H        -5.6561859633       -1.2819575501       -8.8091835261
 H        -4.1475199734       -0.6717743209       -9.5284267612
 H        -7.7032367606       -2.6139616785      -11.3394033104
 H        -8.2801164449       -1.7530549073      -12.9099163570
 H       -10.5148017251       -1.5252439446      -11.9741756645
 H        -9.8380775116       -1.9442094365      -10.4491407355
 H       -10.9233868751       -3.3761902897       -8.5697931066
 H        -9.3308298648       -3.9026191980       -9.1976112652
 H        -9.4456427064       -5.9511986008       -7.7139473715
 H       -10.8354545699       -5.3201671704       -6.8196109018
 H        -9.0057546650       -5.7339308478       -2.8693807511
 H       -10.0786716536       -5.5572028234       -4.1657743884
 H       -10.1144873913       -3.1918608091       -2.2856588773
 H       -10.5992815406       -4.6256879180       -1.4160956517
 H       -14.0998275348       -1.1691590630       -4.1413201890
 H       -12.5389030631       -1.7060550600       -4.6443430811
 H       -12.7196031158        0.4071400204       -2.6806704425
 H       -13.2773161937        0.8988929529       -4.3861725411
 H       -12.2387698727        2.3090895531       -6.9908951316
 H       -12.0426470530        0.7484271751       -7.6153254746
 H       -11.8069284615        2.5754806163       -9.3911115620
 H       -10.2166132156        1.5812447621       -9.1798451543
 H        -7.8628385260        4.9007237684       -7.6310555316
 H        -6.5621624283        5.4526636621       -8.5350573806
 H        -6.7921285980        3.5790172448       -8.0178970994
 H       -10.8250415609        3.8709782382      -11.3846780317
 H       -10.1941920376        2.3349239919      -11.0415507824
 H        -9.2224642141        3.6084533385      -12.0396313614
 H       -10.8838709289        5.7950994361      -10.4914793794
 H        -9.0854765136        6.1033809863      -10.5897196992
 H       -10.1290420183        6.2583737036       -9.1643749731
 H       -11.3005182262        3.7447000834       -5.1023569936
 H       -11.7578286589        3.0332607591       -3.4952911703
 H       -12.6619762341        2.5312380252       -4.9638584612
 H        -9.1998963530        3.2884108199       -4.5934882290
 H        -8.3455273183        1.6511736441       -4.7615914090
 H        -9.1322599905        2.1811683273       -3.2450063268
 H       -15.3610419423       -3.4960988809       -2.5121844416
 H       -14.5742320366       -4.9398180415       -2.7491719164
 H       -14.4521043825       -3.7028511168       -3.9922736397
 H       -12.2398558719       -4.2280179163       -0.5951096214
 H       -13.9894687573       -4.0385810428       -0.5031155486
 H       -12.9083134826       -2.5843579195       -0.3871126294
 H        -7.4816247576       -6.5159146649       -6.1629635450
 H        -9.0967007395       -6.7631472672       -5.4456892315
 H        -7.5878935517       -6.4701795319       -4.4640725778
 H        -6.1965457874       -4.0263099336       -4.6959629002
 H        -6.7432862070       -3.1339532499       -5.8723225151
 H        -6.2293097903       -4.7805160048       -6.3383880102
 H       -12.5372524436       -2.6654432034      -10.7701028741
 H       -13.4355573437       -4.0382923237      -11.1041632519
 H       -12.6530186595       -3.2046262718      -12.5677509403
 H       -10.4143575438       -6.0496699372      -12.4850605926
 H       -11.7148540732       -5.1797508260      -13.3495008902
 H       -12.1941848649       -6.2420387524      -12.1360532931
 H        -6.7583155207        1.2589445256      -13.2408700045
 H        -5.2243819172        1.6241742341      -12.3065856255
 H        -6.8075471894        2.1650379722      -11.6941760624
 H        -4.3853052223       -0.6328611335      -11.7391964426
 H        -5.3763641095       -1.2235384357      -12.8896855702
 H        -5.4250080852       -1.9702327120      -11.2922511085
 H        -5.0231004869       -0.6382026317       -3.1085073751
 H        -5.8054973662       -1.7431292019       -4.2551629325
 H        -6.5094919978       -0.2213246020       -3.7571139252
 H        -3.8725962839        1.3914798844       -3.8342894407
 H        -5.2426229794        1.9629380856       -4.7078706264
 H        -3.7690083103        1.7856799372       -5.5639812992
 H         1.1531542758       -3.3212238833       -3.7656130080
 H         2.3750007157       -3.6998417778       -4.9931079587
 H         0.7086099568       -3.6256956939       -5.2966449940
 H         3.7090416558       -2.1084599035       -4.3830542164
 H         2.7563965200       -1.0620777774       -3.2839766929
 H         3.3978862759       -0.4121641602       -4.9564994570
 H         3.6828955415        1.8922546952      -11.9649223449
 H         2.1968485349        2.6813803250      -11.2525344460
 H         2.2395885164        2.1580881330      -12.8685854583
 H         0.5928785635       -0.9623215693      -11.4812655041
 H         0.6381573040        0.1443874313      -12.8561458082
 H         0.0833262329        0.7531070968      -11.3643795216
 H         3.7863155114       -3.3216285021      -13.4694719334
 H         4.1818863752       -4.9585881607      -13.3877696836
 H         3.7578854777       -4.4259020262      -15.0564857877
 H         7.0311105019       -5.1767833550      -13.4218065266
 H         6.2730149770       -4.2041209727      -12.3301504396
 H         7.5895882318       -3.5650104607      -13.2125520578
 H         3.3508207142       -4.1818479127      -18.5408875266
 H         3.2107046245       -5.9066705784      -18.6667822594
 H         3.0049988630       -4.9894258714      -20.1983349514
 H         6.4949240059       -5.7434020899      -21.1064109239
 H         5.0871860928       -4.7068478243      -21.6672958415
 H         4.6908669037       -6.3176222411      -21.0788074283
 H         8.0018853733        3.1656490213      -20.2917890863
 H         7.6506040728        2.2018302980      -19.0040236825
 H         6.4527589487        2.9246366418      -20.0447301193
 H         7.1299853010        1.8972121131      -22.7439098995
 H         5.7089183692        0.9363763892      -22.0906778354
 H         7.0397890632        0.1301755104      -22.7641563711
 Na       -8.5287841284       -1.1597561482       -5.6028130482
 Na        5.6582082686       -1.1872119449      -17.4363949213
