232

 C        10.0543538558        1.8428773056      -20.4278630907
 C         9.0122867459        1.0009560849      -21.2521119264
 O         9.3568930722        0.1544187993      -22.0966720694
 C         7.5449698916        1.0469275740      -20.8571989985
 C         7.1729419638       -0.1986834213      -19.9858059805
 O         7.1162917970       -0.0551495944      -18.7623514920
 C         6.8870304793       -1.5554347519      -20.6916862297
 C         7.0216766927       -2.8502639062      -19.9385628187
 C         5.6143133413       -3.4370627777      -19.5922220690
 O         4.7623812681       -2.5939053900      -19.2395308052
 C         5.1481505984       -4.8884279596      -19.5501058064
 C         6.0784879243       -5.6336530294      -18.4827072234
 O         7.1801814396       -5.8871603322      -18.8717883341
 C         5.5179682632       -6.1568208923      -17.1670855757
 C         6.0231055172       -5.5896646765      -15.8407531013
 C         6.0607432620       -4.0609014019      -15.8151332007
 O         6.4310775847       -3.3647846227      -16.7469232324
 C         5.6722231675       -3.5026179867      -14.4084371546
 C         5.6171133411       -2.0203901336      -14.1648159597
 O         5.4265972830       -1.2189207900      -15.0512047684
 C         5.6757474184       -1.5141142111      -12.6239847312
 C         4.8282246765       -0.2722038517      -12.3615208076
 C         3.3402131156       -0.6648868927      -12.0425625329
 O         3.0050229534       -1.8176527662      -12.0885520531
 C         2.4201070220        0.4135332308      -11.3971759580
 C         2.6154980442        0.3674170702       -9.8123499587
 O         2.7633753872        1.3827674365       -9.1920302370
 C         2.5416647705       -0.9793312306       -9.0545667868
 C         2.7936329042       -0.7627187405       -7.6221797103
 C         1.9532129628       -1.7270384857       -6.7604857277
 O         1.2980240862       -2.5570851626       -7.3778472710
 C         1.8978690183       -1.7206524698       -5.2847688517
 C         0.4836746426       -0.9405656978       -4.9161705891
 O         0.5011990525       -0.1271454056       -4.0941348201
 C        -0.8006495881       -1.3622250836       -5.7506132680
 C        -2.0303682490       -0.4910136660       -5.3407687899
 C        -3.3624610598       -1.1646110168       -4.9736416761
 O        -3.5028872351       -2.3769858475       -5.0201641591
 C        -4.6271570620       -0.2635334738       -5.0441401224
 C        -5.3461660905       -0.4615108998       -6.5015921472
 O        -6.3900081601       -1.0736357616       -6.6320546438
 C        -4.6892553995        0.2212323351       -7.6889113800
 C        -5.0596430574       -0.4665785112       -9.0029266606
 C        -5.8192280132        0.5422634658       -9.8558314611
 O        -6.2447576463        1.6227121970       -9.3957079105
 C        -6.2291836036        0.0260089301      -11.1868079277
 C        -7.8314684860       -0.4809432111      -11.0280520231
 O        -8.5348705796        0.1940952052      -10.3862848396
 C        -8.2972565586       -1.7179778935      -11.7874214267
 C        -9.7172223876       -2.1882947257      -11.4570617699
 C        -9.9284447884       -3.7175644670      -11.5472400395
 O        -8.9458400804       -4.3614361844      -11.8452886753
 C       -11.2719848636       -4.4758577687      -11.3482084051
 C       -11.3202534600       -4.9626663970       -9.8304834270
 O       -11.8190831923       -6.0300173313       -9.5647138792
 C       -10.3831203543       -4.1874886795       -8.9165869331
 C        -9.9882408548       -4.9801207401       -7.6531469205
 C        -8.9699111499       -4.1833910565       -6.8274140590
 O        -8.9653465430       -2.9988157782       -6.9791963271
 C        -8.0974662350       -4.6454992615       -5.5670036784
 C        -8.8021743462       -3.9690282046       -4.3224398155
 O        -8.5820135834       -2.8254719278       -4.0336308149
 C        -9.5773750653       -4.8470292232       -3.3042312791
 C       -10.5916211176       -4.1213177655       -2.3732498845
 C       -11.9325908132       -4.0808217345       -3.0187131970
 O       -12.1670366779       -4.5443727698       -4.1279379330
 C       -13.1103308189       -3.3742501256       -2.2122291593
 C       -12.7683077948       -1.8890633239       -2.5395463914
 O       -12.4072579700       -1.1360241505       -1.6573775160
 C       -13.0547367159       -1.2363385303       -3.8823981552
 C       -12.5673602789        0.2836517446       -3.8361449015
 C       -11.1312679997        0.4889359980       -4.2341484114
 O       -10.3871762655       -0.4823409994       -4.1725911979
 C       -10.7295073930        1.8046038768       -4.9018861259
 C       -10.5457581130        1.3352473738       -6.4523897868
 O        -9.5722291605        0.7269251909       -6.7402828104
 C       -11.6295903684        1.7291227453       -7.4952438080
 C       -11.0098918456        2.3342014128       -8.7013835466
 C       -10.1662184763        3.6265808289       -8.4505437263
 O        -9.9922843191        4.1944769777       -7.4180119273
 C        -9.4917938950        4.1447217939       -9.7652040907
 C        -7.8667764785        4.1707685227       -9.7850327040
 O        -7.3203257162        4.2830037776      -10.8107168542
 C        -7.0786113003        4.3927522693       -8.4705887382
 C        -9.8872766492        3.3576856947      -11.0335596877
 C        -9.9511632097        5.6063197969       -9.8987250300
 C       -11.7855683000        2.8226328610       -4.6511500267
 C        -9.3574054490        2.1954682085       -4.3496390892
 C       -14.4550886747       -3.7482591116       -2.8536178296
 C       -13.1219689111       -3.6769248693       -0.6422387208
 C        -8.0809968807       -6.1469329942       -5.3592632276
 C        -6.6728214839       -4.0259996204       -5.7907545674
 C       -12.4538615851       -3.4977407245      -11.6279235596
 C       -11.2750179368       -5.6841842659      -12.2995193025
 C        -6.3932458491        1.1169125439      -12.2548283620
 C        -5.3324914792       -1.0982289789      -11.7187516881
 C        -5.6220332507       -0.7490809629       -3.9162744099
 C        -4.4116245416        1.2328410357       -4.9397389654
 C         1.5992064478       -3.1942110021       -4.7177290474
 C         3.0035269005       -1.1635753011       -4.3805431105
 C         2.5116618152        1.8665366511      -11.8975787684
 C         1.0285202507       -0.1524333942      -11.6105655400
 C         4.2647986773       -4.0385548671      -14.2307986161
 C         6.7713619393       -4.1115685664      -13.4774605458
 C         3.6405790909       -4.9152928758      -19.3314188061
 C         5.3608454234       -5.6789544921      -20.9338104210
 C         7.2415056578        2.2103388951      -20.0634178587
 C         6.7277711818        1.1778537551      -22.2364498547
 H         9.8108907464        1.9467514089      -19.3720712839
 H        10.3228833193        2.8266788662      -20.8891458260
 H        11.1275586745        1.4426475201      -20.5151738088
 H         7.7071611083       -1.4614051065      -21.4282534490
 H         5.9535093722       -1.6506949255      -21.2863091660
 H         7.6360709189       -2.7261018967      -19.0167449119
 H         7.5740693739       -3.5262328752      -20.5502551777
 H         5.7616481939       -7.1986687009      -17.1814367909
 H         4.3751778693       -6.0329571558      -17.0886866947
 H         7.0558432297       -5.8702620001      -15.8252399227
 H         5.3420297992       -6.1579686636      -14.9737372172
 H         6.7052082659       -1.2479526219      -12.4402548442
 H         5.3786449187       -2.3995864086      -12.0883038542
 H         4.7863047503        0.3280729818      -13.2753727957
 H         5.2020334763        0.2719844704      -11.5117741620
 H         3.2994411268       -1.6660946163       -9.5859320543
 H         1.5619406688       -1.4130457827       -9.1551496207
 H         2.3618146688        0.2418566689       -7.4420516993
 H         3.7942000896       -0.9372766001       -7.3182296113
 H        -0.9834435232       -2.3820140813       -5.7162769267
 H        -0.5042760245       -1.1953743176       -6.7816988944
 H        -2.2932601486        0.3746457384       -5.8891843539
 H        -1.7376661000        0.0038758753       -4.3983936440
 H        -3.6433573374        0.1357587167       -7.5824673429
 H        -4.9577024226        1.2539170060       -7.6086787486
 H        -5.6421153939       -1.4165611933       -8.8732949735
 H        -4.0424982173       -0.7494090002       -9.5251327765
 H        -7.5610339289       -2.5116783718      -11.5747313386
 H        -8.4580820166       -1.4145817445      -12.8295334926
 H       -10.3832895545       -1.7434786894      -12.1913852308
 H       -10.0140779094       -1.8335998392      -10.4793689444
 H       -10.7341631112       -3.1391755200       -8.7190913534
 H        -9.4270731745       -4.1131196826       -9.4959563498
 H        -9.6488670133       -5.9837104197       -7.8894641208
 H       -10.7950337504       -5.1092817588       -6.8866449323
 H        -8.7904757640       -5.4535152863       -2.7069993149
 H        -9.9910805094       -5.6490444949       -3.8507676560
 H       -10.2454788509       -3.1954956542       -1.9607899837
 H       -10.6157672604       -4.8114519383       -1.4863855621
 H       -14.0632177352       -1.3671627944       -4.1670657086
 H       -12.3637875483       -1.7406418657       -4.4899875013
 H       -12.7191555317        0.6013900273       -2.8161475794
 H       -13.2288464801        0.7946961885       -4.5147695246
 H       -12.4348908458        2.3569653052       -7.1543770814
 H       -12.0738952745        0.7998276481       -7.8821269862
 H       -11.7862714222        2.5276750311       -9.3327918920
 H       -10.2106115790        1.6683437853       -9.0847005965
 H        -7.7259440456        4.7990905253       -7.6823313255
 H        -6.3138751824        5.1662815659       -8.5701210208
 H        -6.8308466197        3.3979557436       -8.1247477011
 H       -10.9668078886        3.2548512400      -11.2054526762
 H        -9.4928517002        2.3575886991      -10.9654986526
 H        -9.4473691646        3.8994218676      -11.8688977650
 H       -11.0121566292        5.6407948202      -10.1704954702
 H        -9.2353511524        6.0180725718      -10.5777487306
 H        -9.9744832638        6.1389254524       -8.9636289297
 H       -11.2735481827        3.6841964908       -5.1738327837
 H       -11.9781617935        3.0014716425       -3.5704675230
 H       -12.8090584463        2.5200717877       -5.1546972183
 H        -9.3326593587        3.2633751111       -4.3257749189
 H        -8.5932004977        1.7844451687       -5.0340117915
 H        -9.1372298805        1.8308527281       -3.3329601700
 H       -15.2220798205       -3.2778560709       -2.2603476286
 H       -14.6866646022       -4.7633551129       -2.6750727804
 H       -14.5328153096       -3.4590886699       -3.8547118519
 H       -12.2112390300       -4.2281299576       -0.4068608362
 H       -14.0149956189       -4.3661262725       -0.4745652255
 H       -13.1728299564       -2.6817873973       -0.1637526673
 H        -7.3632796665       -6.7590282335       -5.8877238904
 H        -9.0553533903       -6.5593561285       -5.5526459199
 H        -7.7330437258       -6.3147175459       -4.2729017103
 H        -5.9787972243       -3.8806091284       -5.0172527394
 H        -6.8745901156       -2.9407010720       -5.9513882883
 H        -6.1803802735       -4.4585184160       -6.6211623865
 H       -12.2594028013       -2.6504881710      -11.0047240541
 H       -13.3925227338       -3.8466233402      -11.2657328799
 H       -12.5548446389       -3.2998876190      -12.7127660196
 H       -10.2212724901       -5.9586024350      -12.5421577045
 H       -11.8104299824       -5.5041169222      -13.2673454651
 H       -11.8542340221       -6.5329565896      -11.8762305590
 H        -7.2157178198        0.7717312596      -12.9660019142
 H        -5.4467145994        1.3922750968      -12.6721904570
 H        -6.8349072834        1.9495564325      -11.7157825450
 H        -4.3680488110       -0.6864265573      -11.8920392153
 H        -5.5751378478       -1.2179952835      -12.7810716452
 H        -5.3028692823       -2.0962199609      -11.3071071756
 H        -5.2917861184       -0.2628987767       -3.0218379855
 H        -5.5791635340       -1.8487244664       -3.8940889921
 H        -6.6607798255       -0.4005363367       -3.9878555832
 H        -3.7384117703        1.4178192099       -4.1134041517
 H        -5.3343730795        1.7448189475       -4.7113118306
 H        -4.0110974172        1.7949284420       -5.8555845661
 H         1.0406488726       -3.1419460095       -3.7356433785
 H         2.4137600067       -3.8368004454       -4.7120136354
 H         0.7330599327       -3.5975058226       -5.3010193927
 H         3.7292585762       -1.9249830835       -4.0634680044
 H         2.4778041385       -0.8508690354       -3.5403496061
 H         3.5223008396       -0.3328731975       -4.8705828403
 H         3.5167278297        2.2508645799      -11.5511606124
 H         1.6385599321        2.3208699610      -11.5309855976
 H         2.4427840798        2.0200054656      -12.9951364411
 H         1.1130618759       -1.1607813327      -11.2132187816
 H         0.7386352126       -0.3048281272      -12.6671307675
 H         0.1895858121        0.4001645728      -11.2209365318
 H         3.6932077616       -3.4170478482      -13.5560138674
 H         4.1740023057       -5.0520874326      -13.7626466084
 H         3.9008841453       -4.1797856657      -15.2423798032
 H         6.8307735546       -5.1957213165      -13.4930612577
 H         6.7211314892       -3.9473115693      -12.4533814140
 H         7.7648006988       -3.7226045659      -13.7393225566
 H         3.2840252092       -4.2976689408      -18.5341565716
 H         3.3961575341       -5.9745336496      -19.0319290567
 H         3.2018419660       -4.7825197172      -20.2524868275
 H         6.3243745068       -6.0976095465      -20.9853272057
 H         5.0941075380       -5.0040574596      -21.7522405286
 H         4.5069054728       -6.4412030098      -20.8011423559
 H         7.6261462298        3.1366988305      -20.3415660444
 H         7.5902813575        2.1467109144      -18.9953530281
 H         6.1795134006        2.4210762186      -20.1483554250
 H         7.3469216127        1.7876128718      -22.8548563688
 H         5.7300686941        1.4300064932      -22.1249779419
 H         6.7932768436        0.1713300117      -22.6823228002
 Na       -8.5858192056       -0.9542900920       -5.5304859863
 Na        5.6621156345       -1.1169237218      -17.3882175970
