232

 C         9.4492647925        2.5245231066      -21.0167315183
 C         8.6569975817        1.3382930811      -21.2978161672
 O         9.1255317215        0.5126429314      -22.0600661232
 C         7.1090750183        1.2412381468      -20.8158751306
 C         7.1117467278       -0.2405526361      -20.1584896610
 O         7.0361271690       -0.3400320045      -18.9486704827
 C         7.2310559151       -1.4680878341      -21.0006999924
 C         7.0306454951       -2.7717617814      -20.2338929485
 C         5.5568800464       -2.9470751207      -19.6892508055
 O         4.7015603961       -2.1838732848      -19.3819467604
 C         5.2087027470       -4.5365171071      -19.8147692624
 C         6.1364031229       -5.0853746438      -18.6844077042
 O         7.3536246621       -5.0462427997      -18.8449079271
 C         5.5166121535       -5.9550075901      -17.6322854420
 C         5.9929591754       -5.5828731713      -16.2560983139
 C         5.7193842718       -4.1354321649      -15.8265724233
 O         5.4194997385       -3.3663064624      -16.7356178812
 C         5.6036279558       -3.7375627297      -14.3079195159
 C         5.4317046722       -2.1130201998      -14.0526791488
 O         5.2885485129       -1.2873568784      -14.9526056764
 C         5.5762250235       -1.6493131605      -12.6612422338
 C         4.6665474727       -0.3332124229      -12.4929391730
 C         3.2193942808       -0.9655778517      -12.2201418195
 O         3.0061579870       -2.1704233222      -12.4036182115
 C         2.1133921625       -0.0403079209      -11.4896358727
 C         2.5335245845        0.0649194051       -9.9728953443
 O         2.8026785339        1.1831359859       -9.5801667863
 C         2.5049996695       -1.1072332347       -8.9679606528
 C         2.4792486439       -0.6227981917       -7.5612663656
 C         2.0058277212       -1.7815597132       -6.6365044767
 O         1.5464785784       -2.7918281300       -7.1268723233
 C         2.0737011666       -1.6631349897       -5.1351227781
 C         0.7268606828       -1.0748490810       -4.5464828976
 O         0.6492993855       -0.2606453055       -3.6823193435
 C        -0.6790147544       -1.6967132831       -5.0543353186
 C        -1.8163880172       -0.6297800371       -4.9967619659
 C        -3.2990112367       -1.1741667901       -5.0072320750
 O        -3.5055709989       -2.3668903169       -4.8118524569
 C        -4.5306025123       -0.1837467432       -4.9567489564
 C        -5.3097660614       -0.3645553747       -6.3515742765
 O        -6.4775967888       -0.3663079580       -6.3936519739
 C        -4.5601724483       -0.2228732523       -7.6911198619
 C        -5.3641629597       -0.7602605425       -8.8230462933
 C        -5.5939451537        0.3303193484       -9.9690072640
 O        -5.3016507437        1.5036582464       -9.8067585676
 C        -6.1528029203       -0.2309051938      -11.2823528750
 C        -7.7160981456       -0.8564230281      -11.1830822308
 O        -8.4291985552       -0.2373728656      -10.4967490794
 C        -8.3570505239       -1.7125437226      -12.3621685337
 C        -9.7634495048       -2.2567876259      -11.9552151877
 C        -9.7462845825       -3.8586629544      -11.6846418502
 O        -8.6786918949       -4.4208488320      -11.6517414929
 C       -11.0997826495       -4.6017397038      -11.3363468924
 C       -11.2079359219       -4.8365514598       -9.8194974117
 O       -11.8521518897       -5.7600479620       -9.3551347434
 C       -10.4153226996       -3.9793856374       -8.8188277980
 C        -9.5810273397       -4.8755522682       -7.8936275055
 C        -9.0140923380       -3.9697554258       -6.8272569886
 O        -9.2104591662       -2.7838157424       -6.8909991648
 C        -8.1981434876       -4.5870897674       -5.6079767180
 C        -8.5840140728       -3.8212302537       -4.2361091747
 O        -8.4229604363       -2.6523100589       -4.0194363974
 C        -9.1911654682       -4.6822600906       -3.0483715922
 C       -10.1969553979       -3.9325244865       -2.1405495038
 C       -11.6245763311       -4.1425902413       -2.6570499935
 O       -11.8497246145       -4.7518492176       -3.7085143191
 C       -12.7527598519       -3.3787037314       -1.9356165399
 C       -12.7340879588       -1.8874286356       -2.3274517237
 O       -12.4108460706       -1.1079280832       -1.4943227988
 C       -13.1647991785       -1.2832465356       -3.7274841311
 C       -12.7523590097        0.2371863980       -3.7401676137
 C       -11.3840475675        0.4075547672       -4.2725933004
 O       -10.6041310808       -0.5005996990       -4.1571502652
 C       -11.0345824617        1.8455486640       -4.8407882121
 C       -10.8963118120        1.5073601875       -6.4590449517
 O       -10.0560189705        0.7121643068       -6.9155782742
 C       -11.8204134769        2.1265421849       -7.5023167589
 C       -11.2335028635        2.3607479522       -8.8927425877
 C       -10.0436322483        3.3717303827       -8.7152245904
 O        -9.7109279405        3.5241041932       -7.5626764859
 C        -9.4156376422        4.2128089518       -9.8486907705
 C        -7.7711449470        4.2557017162       -9.8520864703
 O        -7.2098097177        4.4053270731      -10.8572494864
 C        -7.0103106097        3.8866631457       -8.4960806035
 C        -9.8288367928        3.8494844994      -11.2773036336
 C        -9.6955184277        5.7245984744       -9.5311653564
 C       -12.1482837200        2.9313399129       -4.5515284263
 C        -9.6190055667        2.3452759592       -4.4766308805
 C       -14.1007825325       -4.1011258354       -2.2800981448
 C       -12.4525700551       -3.4786851688       -0.3254435780
 C        -8.4200911031       -6.0470761561       -5.4930865144
 C        -6.7096760103       -4.1735905211       -5.9060492443
 C       -12.3803498866       -4.0109704244      -11.9010081248
 C       -11.1307481223       -6.0849569595      -11.8546412362
 C        -6.3034342184        0.8593376902      -12.3132817117
 C        -5.2234210074       -1.4304346615      -11.7942122513
 C        -5.6099987544       -0.5608078759       -3.8464612013
 C        -4.0161921400        1.2158487410       -4.8360488965
 C         2.1481173416       -3.1115100359       -4.5581454174
 C         3.3544737607       -0.8771728395       -4.5708576092
 C         2.1283827778        1.4351842431      -12.0590028709
 C         0.6972490431       -0.6214247001      -11.8023435248
 C         4.2771287452       -4.3031899110      -13.8060285433
 C         6.7456701238       -4.2200425250      -13.3315647479
 C         3.6542250112       -4.6232540009      -19.5460266439
 C         5.5565227282       -5.2267180368      -21.1507131651
 C         6.7576899170        2.2665585215      -19.6982539261
 C         6.2855173771        1.4133378933      -22.0524470294
 H         9.9123042300        2.4025359668      -20.0008180655
 H         8.8689780150        3.5130082435      -21.0846486006
 H        10.2956350044        2.6218967489      -21.7110938919
 H         8.1406182476       -1.4506500361      -21.6223009397
 H         6.5609107014       -1.3469613874      -21.8583489824
 H         7.7631413604       -2.8819908026      -19.4866196451
 H         7.1542706522       -3.5227579759      -21.0810555646
 H         5.7312650647       -7.0080357616      -17.9002839244
 H         4.4191436241       -5.9680350089      -17.6038638641
 H         7.0612644078       -5.6431002090      -16.3358212638
 H         5.6145098795       -6.3220350217      -15.5213572898
 H         6.5984024252       -1.3050834850      -12.6398805515
 H         5.4121677163       -2.4586227598      -11.9671825071
 H         4.4808943129        0.2783362148      -13.3434887945
 H         5.0734181223        0.3111550542      -11.7030834101
 H         3.3264170147       -1.7539503891       -9.0982523512
 H         1.5153525127       -1.6308079855       -9.1893813428
 H         1.8291949205        0.2282185502       -7.4927666650
 H         3.5031278177       -0.3715512397       -7.1920387886
 H        -0.8113331424       -2.4548099535       -4.2844326941
 H        -0.7263117644       -2.1273855740       -6.0225774371
 H        -1.7490800676       -0.0236284246       -5.9598932742
 H        -1.7659804456        0.0566740747       -4.1658176048
 H        -3.5448965820       -0.6321783187       -7.5557843168
 H        -4.3131710963        0.8237389429       -7.9402339535
 H        -6.4044738776       -1.0248403771       -8.5039420756
 H        -5.0046304867       -1.5946969422       -9.2826493157
 H        -7.7014924885       -2.5206027035      -12.6639719235
 H        -8.4379955400       -0.9905833532      -13.1978967670
 H       -10.4760473933       -2.1217972873      -12.8477713073
 H       -10.1669022633       -1.8382377140      -11.0142798635
 H       -11.2266136284       -3.5782674038       -8.2092301418
 H        -9.8537306946       -3.1358163226       -9.2557251865
 H        -8.8935390572       -5.5123134284       -8.4596112354
 H       -10.2767925525       -5.5788845277       -7.4292504360
 H        -8.3808943806       -5.1428187960       -2.5928719350
 H        -9.6329488791       -5.5737510161       -3.5610484036
 H        -9.8401953561       -2.9122758700       -2.0401945970
 H       -10.0609506593       -4.3322193282       -1.1502805310
 H       -14.2686204950       -1.4260583825       -3.9048523257
 H       -12.5277265165       -1.9006722715       -4.4634273987
 H       -12.7594507166        0.4044073867       -2.6669384859
 H       -13.4608921534        0.8969967530       -4.1677236767
 H       -11.9910863360        3.1524932871       -7.0751454936
 H       -12.8605684312        1.5958216926       -7.5394977721
 H       -12.0227699644        2.8896383659       -9.5364085240
 H       -10.8977582219        1.4634611011       -9.3251242084
 H        -7.5574758908        4.3035709641       -7.7168569210
 H        -5.9242184628        4.2018407724       -8.5517465569
 H        -7.0556922928        2.7967632208       -8.3164249806
 H       -10.6826077586        4.2864312730      -11.5921929932
 H        -9.9271376278        2.7775158416      -11.4438774715
 H        -9.0139067178        4.1809571465      -11.9788992422
 H       -10.5227766108        5.9480663369      -10.1831569191
 H        -8.9129898844        6.4625590901       -9.9395216976
 H        -9.7812475774        5.8788499618       -8.4714399859
 H       -11.7550593620        3.8837130535       -4.9329910549
 H       -12.4737764665        2.8680283503       -3.4817975821
 H       -12.9669764950        2.7076559292       -5.2892915441
 H        -9.1873851486        2.7675974299       -5.4244700118
 H        -8.9218477165        1.5268888459       -4.2626574232
 H        -9.6234471420        3.1121590626       -3.7630613248
 H       -14.8809514209       -3.7839648382       -1.5683398581
 H       -14.0111589113       -5.1542348032       -2.3422432548
 H       -14.5167592145       -3.8481999641       -3.2625705650
 H       -11.8598302732       -2.5729597254        0.0097808943
 H       -11.9756897312       -4.4323062772       -0.0920909227
 H       -13.4826610730       -3.5918600753       -0.0647208214
 H        -8.0390863979       -6.6129083410       -6.3335347474
 H        -9.4445222028       -6.3985589004       -5.5783984035
 H        -7.9653572857       -6.5746034907       -4.6295395063
 H        -6.0617914539       -4.4017009618       -5.0331456814
 H        -6.5953537784       -3.1444393331       -6.1983925969
 H        -6.2420609459       -4.6052000340       -6.7268376659
 H       -12.4620451033       -2.9717964756      -11.6985243916
 H       -13.2314937794       -4.6093021540      -11.6239351947
 H       -12.3556101972       -4.0794255503      -12.9898690500
 H       -10.2497102486       -6.7278844525      -11.5428964479
 H       -11.1001821430       -6.1860044998      -12.9645329726
 H       -12.0269274073       -6.5535104769      -11.4288358059
 H        -6.8736278142        0.5502391848      -13.1717283630
 H        -5.3296667203        1.3735344331      -12.5258259154
 H        -6.9684571569        1.5910393075      -11.7573342485
 H        -4.2380777073       -1.1197971156      -11.9008660374
 H        -5.6544823517       -1.7515550687      -12.8067160224
 H        -5.1151925274       -2.3380162413      -11.2035780668
 H        -5.1662471767       -0.7794929649       -2.8392129731
 H        -6.2261342149       -1.4229912346       -4.0589666026
 H        -6.2681776096        0.3296253997       -3.8547627091
 H        -3.2410409562        1.3288361406       -4.0733107903
 H        -4.8002023244        2.0038488593       -4.7450486681
 H        -3.3949863355        1.2985566568       -5.7423586061
 H         2.1806049923       -3.0815928234       -3.4170670582
 H         3.0912958219       -3.6218818545       -4.8684365292
 H         1.3456567181       -3.7970515544       -5.0110739385
 H         4.1953229650       -1.1008708440       -5.1672862158
 H         3.5655255575       -1.0820715623       -3.4941180519
 H         3.3377988153        0.1614476407       -4.5939443907
 H         3.1276361698        1.6970594764      -12.3228296596
 H         2.0014001547        2.2120580384      -11.2193321858
 H         1.5743378734        1.4630317272      -13.0187666279
 H         0.4379570383       -1.5118119029      -11.2072312298
 H         0.4227972653       -0.8249745429      -12.8415371462
 H         0.0262512326        0.1484598674      -11.4045154536
 H         4.2252802983       -4.4827244677      -12.7844943558
 H         4.0129982766       -5.2072763720      -14.3111130456
 H         3.4473079798       -3.5526075070      -14.0311233192
 H         7.2103303938       -5.1449711096      -13.7617137643
 H         6.2845171580       -4.4360924835      -12.3780971605
 H         7.5340015871       -3.5641442920      -13.0542382125
 H         3.2816343616       -4.1351283089      -18.7466565992
 H         3.4074576511       -5.6836559232      -19.5111992559
 H         3.0350753586       -4.2749370176      -20.3908879377
 H         6.5512792903       -5.6980413192      -21.0540736009
 H         5.3549540980       -4.5514167284      -21.9119829389
 H         4.8680992350       -6.0786689519      -21.2113467261
 H         7.0709528096        3.2775800648      -20.0719753788
 H         7.4312644956        2.1189938680      -18.8265619296
 H         5.7943038419        2.2156614841      -19.1159753986
 H         6.3188073734        2.4661502070      -22.4627894618
 H         5.2135703161        1.3559960081      -21.8011468318
 H         6.5873262511        0.7681818295      -22.8591113231
 Na       -8.6684159899       -0.8198524805       -5.5752387123
 Na        5.5274888393       -1.1351699803      -17.3497790428
