232

 C       -22.6658839254       -7.0441324987       -3.1792487388
 C       -21.5092205857       -6.0642740640       -2.9833928839
 O       -20.5611795508       -6.3191862988       -2.2868669278
 C       -21.4923949342       -4.6948465347       -3.9549913404
 C       -20.1648208337       -3.9545969583       -3.8378316414
 O       -19.5756980172       -3.9789826340       -2.7480373752
 C       -19.5211773526       -3.3004576032       -5.0616806878
 C       -18.3322230066       -2.3789586622       -4.6458682044
 C       -17.4202238969       -3.3216577766       -3.8443899013
 O       -17.1528804117       -4.3811157933       -4.2714325082
 C       -16.6161384001       -2.7812091353       -2.5062843737
 C       -16.3397855661       -3.9951456635       -1.4893752755
 O       -17.1402948077       -4.3364383676       -0.6362652470
 C       -14.9205322876       -4.6478686478       -1.4281457648
 C       -14.8494508879       -6.0274944104       -0.7810505408
 C       -15.2843312828       -7.0762535448       -1.7693208174
 O       -16.4157912523       -7.0810924014       -2.2512447547
 C       -14.2312919361       -8.1612057193       -2.2151242563
 C       -12.8965967860       -7.4228906878       -2.6428589567
 O       -12.9106174721       -6.3218443370       -3.2283759888
 C       -11.5674780838       -7.9984410283       -2.2131974895
 C       -11.2265892920       -9.3766493798       -2.8347140213
 C        -9.9418942036       -9.8275105791       -2.1155438389
 O       -10.0763896911      -10.2229283622       -0.9860784324
 C        -8.5386258740      -10.0289314633       -2.8064060792
 C        -7.9244108700       -8.6470162799       -3.3488119762
 O        -8.2466953426       -7.5600266881       -2.8788588269
 C        -6.6882482657       -8.8923654305       -4.2471185064
 C        -5.9706184771       -7.6132112028       -4.6293279125
 C        -6.3414516840       -7.0315264059       -6.0057832267
 O        -7.1289484579       -7.7336015067       -6.6404770073
 C        -5.7581745847       -5.7191375323       -6.7159877350
 C        -4.5243020981       -6.1382209619       -7.6942470004
 O        -3.4158205439       -6.3593993918       -7.2595251177
 C        -4.6834409124       -6.2828358426       -9.2330626359
 C        -4.1297980009       -5.0336229979      -10.0796347259
 C        -4.1051973857       -5.1555630961      -11.6340808141
 O        -3.3918727415       -5.9073457008      -12.2500774621
 C        -5.0637294075       -4.2158042691      -12.4979348392
 C        -4.5168001158       -2.7584071361      -12.1737048039
 O        -4.9389534726       -2.1336099510      -11.2247213017
 C        -3.5892217302       -2.1241864411      -13.2499451092
 C        -2.6387426778       -1.0460779910      -12.5770539765
 C        -1.0773750057       -1.2630798953      -12.6488733575
 O        -0.5118110966       -0.3873280219      -13.2790364571
 C        -0.1724709602       -2.4085888372      -12.0638247789
 C         1.3223784888       -1.9588146581      -12.0531364691
 O         2.2693965816       -2.6635905431      -12.3055543933
 C         1.7782339373       -0.6018246102      -11.3739607809
 C         2.9674049784        0.0639213806      -11.9568676427
 C         3.7988561899        1.0217510155      -10.9910905473
 O         3.1822709105        1.6599886387      -10.2283207834
 C         5.4410857522        1.2971083962      -11.1233275515
 C         5.3964074735        2.5043161826      -12.1431966232
 O         6.0190682497        2.5113631623      -13.2071399204
 C         4.5983689447        3.7012022948      -11.6932163882
 C         5.5532414330        4.9702615944      -11.3644495676
 C         5.9045048338        5.7570938550      -12.6633058303
 O         5.2772160429        5.4971958347      -13.7216592835
 C         6.7763131356        7.0175911567      -12.4599096581
 C         7.2927816367        7.2128552441      -13.9244269760
 O         6.9422028579        8.1804923058      -14.5756761760
 C         8.2686605269        6.1724457949      -14.5286294180
 C         8.5080022619        6.4880124238      -15.9724154006
 C         7.3774657747        5.9865056781      -16.8586463211
 O         6.6420840971        5.0804716780      -16.5583646072
 C         7.1056946298        6.8239149280      -18.2926173193
 C         8.1768217121        6.6724244536      -19.3192265535
 O         9.2582162958        7.2352352057      -19.0987373581
 C         8.0274314657        5.8913852519      -20.6722488709
 C         9.1515468065        4.8515310698      -21.0165173279
 C         9.1355319123        3.6783601843      -19.9932589829
 O         8.4893867820        3.7747178085      -18.9678941442
 C         9.9977384455        2.4441091355      -20.3312681639
 C         9.3107068873        1.2262190392      -19.4329151064
 O         8.3834796788        0.6185583366      -19.8720718799
 C         9.6234293524        1.1460977680      -17.8072125244
 C         8.4991923958        0.2370061065      -17.1110665125
 C         7.2870506342        1.0659531783      -16.6552144183
 O         7.4476636555        2.0778856144      -16.0452126798
 C         5.7904673944        0.6396294595      -16.9980196466
 C         4.9146059927        1.9212703268      -17.6051162294
 O         4.5356958093        2.7169779450      -16.7558425644
 C         4.9014517785        2.1984653639      -19.1310670440
 C         5.7631554953       -0.5596759846      -18.0022733261
 C         5.0413672835        0.3250751051      -15.6512942491
 C         9.7500747757        1.8108195424      -21.8207625088
 C        11.4871848269        2.6817395109      -19.9673412317
 C         5.6523981964        6.3927300140      -18.6916906538
 C         7.0211084514        8.3074814179      -17.8161715330
 C         5.7535371304        8.0661026850      -11.9499036457
 C         7.9751147936        6.8282165703      -11.4931707610
 C         5.9245694376        1.6372685742       -9.7088875903
 C         6.0386053092       -0.0510258330      -11.6825867258
 C        -0.5288070099       -3.1743508891      -10.7103768707
 C        -0.2544500440       -3.4364753942      -13.2191068189
 C        -4.9355219442       -4.7100754169      -14.0258794635
 C        -6.4677482710       -4.3225247284      -11.9154830770
 C        -6.9750895481       -5.2105377463       -7.5154019045
 C        -5.2999546327       -4.5648924847       -5.8064629388
 C        -7.5646372213      -10.4844998709       -1.5899375315
 C        -8.5496495441      -10.9850775221       -4.0134072481
 C       -14.2451560414       -9.2364283004       -1.0215184552
 C       -14.6750700239       -8.7653181075       -3.5334139522
 C       -15.3534787827       -2.1360832227       -3.1270009170
 C       -17.5613654174       -1.8275769936       -1.6665475553
 C       -21.9163206122       -4.9080386789       -5.3781662120
 C       -22.4710395967       -3.7122417936       -3.1607945366
 H       -22.4292863496       -7.8143605492       -2.3602016260
 H       -22.6555919945       -7.4265508977       -4.2194897775
 H       -23.6232658885       -6.5310307181       -3.0309994194
 H       -20.1997220784       -2.7798312528       -5.7802977418
 H       -19.0501518286       -4.1749509901       -5.6269649877
 H       -18.6628005115       -1.5069318497       -4.0813604854
 H       -17.6527758964       -2.1166945779       -5.5125630689
 H       -14.3282227960       -3.8705430225       -0.9007394860
 H       -14.4514058125       -4.5868938871       -2.3627540950
 H       -15.5145960197       -6.0626019604        0.0919200950
 H       -13.8891091287       -6.1743667435       -0.3638960088
 H       -11.4093940639       -8.1079820533       -1.1380301122
 H       -10.7269920229       -7.3074468845       -2.5884846376
 H       -11.2262915709       -9.2184180025       -3.9447756667
 H       -12.0180983753      -10.0450346448       -2.5083655670
 H        -6.9427971032       -9.3989898976       -5.1097817075
 H        -5.9589051071       -9.5189193819       -3.7577983019
 H        -4.9681521315       -7.8856521157       -4.6608335480
 H        -6.0547391853       -6.8785807901       -3.8190640490
 H        -5.6868479570       -6.5802204133       -9.6480621303
 H        -3.9929488273       -7.0580298622       -9.3994931381
 H        -3.1204419774       -4.9370857336       -9.8234082790
 H        -4.7085006928       -4.2254448027       -9.7295797512
 H        -4.2125784384       -1.6459648184      -13.9057715710
 H        -3.1956188298       -3.0593688222      -13.6749863022
 H        -2.8696062519       -0.8892490979      -11.5483152505
 H        -2.7540546429       -0.0554138661      -13.0057020923
 H         2.0830954381       -1.0208414320      -10.4476598215
 H         1.0914156650        0.1886499941      -11.0214257873
 H         2.8174632593        0.5672396600      -12.9502940359
 H         3.7416282401       -0.6960514546      -12.2490763244
 H         3.9128776950        3.5816771124      -10.8223271471
 H         4.0410965759        4.0706866199      -12.4986881577
 H         6.4850725660        4.5250223876      -10.9938278049
 H         5.0843423492        5.6000506855      -10.5965360346
 H         7.8245020130        5.1424520555      -14.3319765381
 H         9.2132013997        6.2971111419      -14.0191095277
 H         9.4351244418        5.9379505014      -16.4240088049
 H         8.6447101308        7.5633514611      -16.1403410439
 H         7.9435374590        6.5195679555      -21.5191572482
 H         7.1167836087        5.3113541636      -20.4914925152
 H        10.0472014196        5.4503157137      -20.8682324218
 H         9.0672104059        4.5805050123      -22.1296890691
 H         9.4722628737        2.2307031976      -17.3969928038
 H        10.5694560088        0.6531683222      -17.4895005625
 H         8.9912561447       -0.2936806827      -16.2688912768
 H         8.4460336963       -0.5486147547      -17.8559265378
 H         5.8385729587        1.9550384211      -19.6327526453
 H         4.5850650023        3.1807504323      -19.2348830669
 H         4.1643718770        1.5524656868      -19.5413804106
 H         4.6596190478       -0.8798695314      -18.0320659365
 H         6.3696627871       -1.4480738819      -17.7701764681
 H         6.2059819971       -0.2839719976      -18.9679536371
 H         4.0383388449       -0.0333580954      -15.9723929226
 H         5.0846380495        1.1199458569      -14.9396092271
 H         5.2450569627       -0.6276639986      -15.3879262083
 H        10.0429163843        0.7549297869      -21.8152288489
 H        10.1665749374        2.2615244666      -22.6769176897
 H         8.6536228328        1.7632025298      -21.9579292898
 H        12.1235281894        1.7883744934      -20.1442251602
 H        11.6340886452        2.9401534249      -18.9049764733
 H        11.8878974419        3.4335598983      -20.6511478712
 H         4.8900434804        6.7538987138      -17.9451734177
 H         5.5657089612        5.2960889328      -18.5183045712
 H         5.3457418220        6.5011015770      -19.7218109604
 H         7.9762747074        8.8051348012      -17.8261795993
 H         6.4612091197        8.4043667914      -16.8820301827
 H         6.3725148348        9.0061183558      -18.4134630957
 H         6.3317161106        8.9092290080      -11.5796411766
 H         5.1335521146        7.7149384249      -11.1211120893
 H         5.1025940298        8.2518594729      -12.7709021390
 H         7.7360148654        6.7383336057      -10.3851626755
 H         8.6537639623        7.6229754455      -11.5867287652
 H         8.5024586465        5.8649478405      -11.6949257630
 H         7.0067595365        1.8029570884       -9.6358081909
 H         5.7666091849        0.7562011862       -9.0361610700
 H         5.4014169116        2.4097931377       -9.2681099423
 H         5.6559622212       -0.8179504848      -10.9241032968
 H         7.1306163410       -0.0338045990      -11.4201947657
 H         6.0561613744       -0.2970546958      -12.7102394903
 H        -0.8783726951       -2.5219085716       -9.8554194247
 H         0.3070564806       -3.7832954197      -10.4005691342
 H        -1.3853455434       -3.8641538058      -10.8622315431
 H        -1.2768163021       -3.8809843896      -13.2969396053
 H         0.4609365197       -4.2435487127      -12.9502327354
 H         0.0407297422       -3.0547002801      -14.2302640171
 H        -4.8015093021       -4.0157815524      -14.8287906445
 H        -5.8660995828       -5.1241112073      -14.2054382393
 H        -4.2602526062       -5.5681634439      -14.0595452869
 H        -7.2289631385       -4.0813083881      -12.5883528033
 H        -6.5881851009       -3.6742665339      -11.0268603695
 H        -6.6398853178       -5.3664156691      -11.6321264906
 H        -7.2534089694       -6.0104518909       -8.2577695751
 H        -6.8433510220       -4.3553635261       -8.0553047454
 H        -7.8078409785       -5.0476501447       -6.8496372375
 H        -5.9070336221       -4.2541143178       -4.9840343107
 H        -5.2034050541       -3.6851881937       -6.4603486760
 H        -4.2919751132       -4.7041742490       -5.3581621460
 H        -8.0809067304      -11.2707693866       -1.0627013368
 H        -7.6453789008       -9.5252557208       -1.0548673361
 H        -6.5027206679      -10.7229761302       -1.8697267573
 H        -9.3411131775      -11.7048863723       -3.9667620471
 H        -7.5602742126      -11.4960295357       -3.8945964135
 H        -8.6408009725      -10.4637753210       -4.9332729268
 H       -14.6026741159       -8.6525169634       -0.1326491575
 H       -13.2407544817       -9.6563878608       -0.9984135149
 H       -14.9580519238      -10.0355741817       -1.2493581799
 H       -14.4849921242       -7.9152212200       -4.2831839054
 H       -15.7651062165       -9.0970341407       -3.4989433901
 H       -13.9454081646       -9.5776065901       -3.8265298627
 H       -14.6872522758       -2.8581516080       -3.7178985025
 H       -14.5936324619       -1.7916291117       -2.4103212700
 H       -15.5538169466       -1.3403935721       -3.7910229771
 H       -18.6056591772       -2.2928193804       -1.3619479101
 H       -17.8223872294       -1.0045780814       -2.3254590542
 H       -16.9859253905       -1.5812604735       -0.7757529686
 H       -21.0445600440       -5.3370867371       -5.9752214883
 H       -22.2414897100       -3.9282484850       -5.7652930756
 H       -22.6853604446       -5.6579320217       -5.4102356397
 H       -22.7178545837       -2.9508204396       -3.9238971969
 H       -21.9821204170       -3.2554303915       -2.3089004203
 H       -23.3785736047       -4.2243637912       -2.8075361926
 Na      -18.2312831212       -5.7652106300       -2.3030096821
 Na        5.8695931224        3.4998708152      -15.1352725756
