232

 C         9.3970954263        2.9062264624      -21.1993023076
 C         8.5700268096        1.5910722142      -21.3926606241
 O         9.0619778538        0.8035451635      -22.1362497689
 C         7.1079965996        1.4274482363      -20.6965600094
 C         7.0562094230        0.0367410784      -20.0905892803
 O         6.8900491127       -0.1046462415      -18.8603507855
 C         7.3200371828       -1.1601178602      -21.0330459856
 C         6.9692554387       -2.6218527122      -20.5124714940
 C         5.6325598228       -3.0317639963      -19.9316358478
 O         4.8412653305       -2.1113834181      -19.5629594510
 C         5.1328120278       -4.5130775136      -19.7962383368
 C         5.9666640839       -5.1244601525      -18.5646892408
 O         7.1776877938       -5.0353042370      -18.6036780287
 C         5.4072789540       -6.1250941646      -17.4224566966
 C         6.0930052922       -5.6363059754      -16.0720528112
 C         5.6700936550       -4.1905928495      -15.8648873268
 O         5.3650920603       -3.5075801117      -16.8254339875
 C         5.5444673652       -3.7822091472      -14.3507518877
 C         5.4238263545       -2.2531832955      -14.1689187816
 O         5.3876768436       -1.4183711344      -15.0428281048
 C         5.5128658862       -1.6850990775      -12.7249714463
 C         4.5652473322       -0.5754148555      -12.4505130670
 C         3.0942114882       -1.0918233516      -12.1311061836
 O         2.7437947451       -2.2311741471      -12.3066570850
 C         2.0329843491       -0.0128398165      -11.5067714173
 C         2.4509767240        0.1038261066      -10.0230889763
 O         2.9997183756        1.1039481015       -9.5500000913
 C         2.2356279930       -1.0576232007       -9.0848009491
 C         2.3837771768       -0.6624766892       -7.5425095231
 C         1.9245887879       -1.8394858190       -6.6424246677
 O         1.5687085985       -2.8733937675       -7.1601186424
 C         2.0550590250       -1.6946437362       -5.0738722727
 C         0.7159108608       -1.0933092441       -4.4499495194
 O         0.7817049550       -0.0893970916       -3.7299030196
 C        -0.6376033490       -1.7616094784       -4.8002287182
 C        -1.8601868549       -0.7878777237       -4.7972103119
 C        -3.3401193132       -1.3196098081       -5.0167768810
 O        -3.5760921086       -2.4911571464       -4.9491576129
 C        -4.4520104212       -0.1220821312       -5.0063837986
 C        -5.3637622272       -0.1859271222       -6.2587111277
 O        -6.6149391618       -0.1476401636       -6.1387483120
 C        -4.7465497046       -0.3905841694       -7.7206540934
 C        -5.7434410739       -0.9285677826       -8.7783695666
 C        -5.6455205390        0.0509393461      -10.0097699852
 O        -5.1988172270        1.1443288330       -9.9278566414
 C        -6.1791676635       -0.3450503759      -11.4533499781
 C        -7.6553981095       -0.9378682497      -11.2873853712
 O        -8.3155342093       -0.5889046593      -10.2687522339
 C        -8.2443789320       -1.9155561609      -12.3218905655
 C        -9.6801611946       -2.3529012760      -12.1794424451
 C        -9.6561724239       -3.8655453027      -11.7011824612
 O        -8.6389816476       -4.5031528756      -11.5328823600
 C       -10.9988729760       -4.6685505268      -11.4071143377
 C       -11.1687318275       -4.8677416880       -9.8433670691
 O       -11.9173093114       -5.6672014283       -9.3536359748
 C       -10.4717415674       -3.9082728805       -8.8870289841
 C        -9.6265721913       -4.6183286558       -7.8033746738
 C        -9.1552471204       -3.7490726508       -6.6300264659
 O        -9.1897287055       -2.5425552384       -6.6937170297
 C        -8.2742786873       -4.4365210798       -5.5579589736
 C        -8.5317634461       -3.7915979513       -4.1743968604
 O        -8.3828151747       -2.5897994364       -4.0790640691
 C        -8.9260997747       -4.5384031503       -2.9076417452
 C       -10.0461494193       -3.8959596984       -2.1065940391
 C       -11.4230597162       -3.9975234255       -2.6695945958
 O       -11.7735695088       -4.5684430804       -3.6659739654
 C       -12.6373258388       -3.3489205867       -1.7495131861
 C       -12.6969681076       -1.8018161598       -2.0502880797
 O       -12.1579503530       -1.0944771993       -1.2168132025
 C       -13.1777332565       -1.4012898899       -3.4912492006
 C       -12.9126450608        0.0092697143       -3.9579227949
 C       -11.4798235098        0.2945595549       -4.3955020304
 O       -10.5542142441       -0.5154414471       -4.2182204016
 C       -11.1570482571        1.7562112459       -4.9714570538
 C       -10.9762903088        1.3316080801       -6.5683762907
 O       -10.2024057590        0.5295762085       -7.0100564283
 C       -11.8364234501        2.0109874451       -7.6317767081
 C       -11.0255842280        2.4368548531       -8.8712134289
 C        -9.9856145323        3.4803769463       -8.5214220215
 O        -9.5920265526        3.6667186586       -7.3608345225
 C        -9.3135480701        4.2176474920       -9.7018889684
 C        -7.6898342711        4.0497482326       -9.8672606137
 O        -7.2284256774        4.2801401562      -11.0129864989
 C        -6.7805392937        3.8059785748       -8.6972572464
 C        -9.9535896351        3.8522675639      -11.1384797909
 C        -9.6805457416        5.7315486203       -9.3403743260
 C       -12.2096594836        2.8643483088       -4.7698041448
 C        -9.7440544085        2.1563943800       -4.4785555752
 C       -13.9491189942       -4.0065179610       -2.1121854211
 C       -12.5264891279       -3.5645172337       -0.2258504939
 C        -8.3622604579       -6.0260127187       -5.5192306447
 C        -6.7883747973       -4.2075200996       -5.8835543470
 C       -12.2341444276       -3.8874174936      -12.0135612047
 C       -10.8826316068       -6.0270032414      -12.0688925202
 C        -6.2199009868        0.9247832885      -12.4261825395
 C        -5.1381192434       -1.3018161662      -12.1082182410
 C        -5.2923389743       -0.3360887467       -3.6438437419
 C        -3.9535618345        1.3717493613       -5.0559281713
 C         2.3118555103       -3.1395228853       -4.4978167693
 C         3.2193573070       -0.8126425033       -4.6944558569
 C         2.1257723509        1.3643983505      -12.2708632071
 C         0.6781250460       -0.7768845928      -11.6763395500
 C         4.2414589401       -4.4758020226      -13.8055191258
 C         6.8850469918       -4.2710246648      -13.6803472275
 C         3.6705385341       -4.6188722818      -19.5562286721
 C         5.5452572636       -5.2886258829      -21.1390886205
 C         6.7686425103        2.5491546896      -19.7287205073
 C         6.1240123852        1.5669944424      -21.9605049161
 H         9.6377657060        3.2281728194      -20.1988264636
 H         8.8529550484        3.6965833965      -21.6359231587
 H        10.3056309662        2.7929920298      -21.7496965851
 H         8.2944424179       -1.0687876566      -21.5159591798
 H         6.7754671707       -1.0364646663      -21.9784284534
 H         7.6322814989       -2.9053848641      -19.6265477313
 H         7.1344219646       -3.1835935310      -21.3908846823
 H         5.7662421585       -7.1124922103      -17.7465928551
 H         4.3503355667       -6.2732154829      -17.3067972147
 H         7.2420297093       -5.6829731072      -16.2687404636
 H         5.8014654411       -6.2466063908      -15.2658431625
 H         6.5412124191       -1.2893851959      -12.5271423314
 H         5.2710126981       -2.5227013406      -12.0240846310
 H         4.5032883011        0.2616012693      -13.2409709919
 H         4.8702117031       -0.0113503106      -11.5548954672
 H         3.1108223961       -1.7012778482       -9.4020388783
 H         1.3431913683       -1.5448457635       -9.3354208721
 H         1.8535562807        0.3020989709       -7.2764855746
 H         3.4319996478       -0.4925787536       -7.2904177972
 H        -0.8691279955       -2.6029674722       -4.0869511339
 H        -0.4112985985       -2.1384983774       -5.8513326010
 H        -1.6636503418        0.0795079746       -5.4073842273
 H        -1.9755217923       -0.4775929054       -3.6886688663
 H        -3.7855709956       -0.9583688273       -7.6487149001
 H        -4.3296049201        0.6611353857       -7.9234030135
 H        -6.7210443631       -0.9790253984       -8.3793281785
 H        -5.5348830065       -1.9573336592       -9.2281836013
 H        -7.5283520166       -2.7649257972      -12.3670981172
 H        -8.1022481124       -1.4109115751      -13.2792437615
 H       -10.1361949182       -2.3015549531      -13.1167260865
 H       -10.2685843447       -1.7914341840      -11.4374160611
 H       -11.2798848392       -3.4354829880       -8.3098531625
 H       -10.0688555629       -3.0892552787       -9.4398231059
 H        -8.7485638925       -5.0898701260       -8.2551515579
 H       -10.2768320794       -5.4335065503       -7.4617201899
 H        -7.9619749407       -4.5459228866       -2.2789958216
 H        -9.0342569227       -5.5681409068       -3.2064194193
 H        -9.7710154111       -2.8090564869       -1.9718898940
 H        -9.8989861446       -4.3428548282       -1.0977998764
 H       -14.2691480281       -1.5529125610       -3.5501961944
 H       -12.6982412584       -2.1054069206       -4.1470455228
 H       -13.1298977132        0.7349472292       -3.0927835757
 H       -13.6815460940        0.3203033799       -4.7408310815
 H       -12.4022379387        2.8889864073       -7.3086618172
 H       -12.5244918622        1.2287670896       -7.7957866034
 H       -11.6855820676        2.9670434977       -9.5512259215
 H       -10.4273830906        1.6535220183       -9.4729036856
 H        -7.3998091472        3.7561926303       -7.7623737161
 H        -5.9560207491        4.4488528590       -8.7053395303
 H        -6.3040031488        2.8566792336       -8.9182736420
 H       -11.0982598698        3.6630233729      -11.1175687593
 H        -9.4802626123        3.0279541597      -11.6711690063
 H        -9.8442437973        4.6331990251      -11.8537423354
 H       -10.7570217382        5.9714957038       -9.4172700575
 H        -9.2655888775        6.3654630306      -10.0600208355
 H        -9.0846933859        5.9095489587       -8.4439501129
 H       -11.8425713861        3.6735137764       -5.3532588778
 H       -12.1538994076        3.2384834199       -3.7700400746
 H       -13.1431973140        2.5896556676       -5.0564691422
 H        -9.4522211615        3.0759520165       -4.9122463408
 H        -9.0216358963        1.4716512894       -4.8402748027
 H        -9.7376037315        2.2901571226       -3.3638346545
 H       -14.7004337006       -3.6792933057       -1.3993004612
 H       -13.8427370783       -5.1411054067       -2.1903429062
 H       -14.4214000504       -3.7593433806       -3.0791638604
 H       -11.5045314666       -3.5320324415        0.0211641122
 H       -12.9434915660       -4.5399752891       -0.0730335419
 H       -13.1245483871       -2.7854346326        0.2520631588
 H        -8.1555988476       -6.6684234007       -6.3984639853
 H        -9.2546712809       -6.5023280112       -5.0212455321
 H        -7.6228791140       -6.3950270242       -4.8577720038
 H        -6.2195882794       -4.7279460022       -5.1332318581
 H        -6.4114025867       -3.2026312202       -6.0351356954
 H        -6.4629548238       -4.5862619615       -6.9175194694
 H       -12.3023229412       -2.8109083032      -11.7050763080
 H       -13.1701289432       -4.4147363603      -11.6883645316
 H       -12.1853589801       -3.7679850094      -13.1118918307
 H        -9.8659807023       -6.3249363955      -12.0136901680
 H       -11.1438500678       -6.0357691712      -13.1117984706
 H       -11.3946044111       -6.8133027169      -11.5157461884
 H        -6.4078559571        0.5881632768      -13.4805243344
 H        -5.2034094055        1.3215507804      -12.3911869072
 H        -6.8815112321        1.6977462009      -12.1298632272
 H        -4.0616735281       -0.9384000402      -11.9163624909
 H        -5.2895338696       -1.5909475584      -13.0906753028
 H        -5.1135190553       -2.1886178753      -11.4728624754
 H        -4.7112390517        0.1913075112       -2.9043268272
 H        -5.3113330368       -1.3637053557       -3.2135876278
 H        -6.3227141479        0.0364910909       -3.7321205395
 H        -3.5523387879        1.6720106576       -4.0638916714
 H        -4.8692475543        1.9312758782       -5.1618249555
 H        -3.2099153065        1.6266412864       -5.7890545214
 H         2.1241240100       -3.1479970142       -3.4776361434
 H         3.2474669724       -3.6778238062       -4.6759616582
 H         1.5888299969       -3.7141263975       -4.9970112780
 H         4.3132350511       -1.1281056998       -4.7402370611
 H         3.1030702084       -0.3120591567       -3.7109479397
 H         3.1400218013        0.1433123827       -5.3228209896
 H         3.1122804063        1.7012966202      -12.6137634915
 H         1.9484945758        2.0917351232      -11.5170585323
 H         1.4530688241        1.3386199857      -13.0708803638
 H         0.7151128506       -1.7725340750      -11.2400132730
 H         0.5676756246       -0.8489666282      -12.7546095451
 H        -0.2514702381       -0.3468797594      -11.2800015705
 H         3.5573448883       -3.8148392948      -13.2220787558
 H         4.4896463051       -5.3886804977      -13.2755240681
 H         3.5869532144       -4.6926538523      -14.6045330477
 H         7.2834659812       -5.0842909932      -14.2289851911
 H         6.8069763566       -4.5428837424      -12.5836090408
 H         7.6547428027       -3.4507246892      -13.7459617020
 H         3.3170595817       -4.4931164466      -18.4589244933
 H         3.2033235799       -5.4763837321      -19.9970973443
 H         3.1402122660       -3.7614956031      -19.9944140342
 H         6.6024978342       -5.5444622473      -21.1269152660
 H         5.1608848619       -4.6719592945      -21.9986428521
 H         4.9826994559       -6.1690009396      -21.1378788701
 H         6.6050639953        3.5075582452      -20.2288301421
 H         7.4224516235        2.6384959417      -18.8936031388
 H         5.9657375784        2.2074099648      -19.1473319635
 H         6.4201485149        2.3860383894      -22.6026839500
 H         5.0954378817        1.9412952113      -21.6957221214
 H         6.0768726816        0.6457349974      -22.5767540630
 Na       -8.7027621551       -0.7609680331       -5.5529853139
 Na        5.3211708324       -1.2442934971      -17.4136755201
