232

 C         8.8351624657        3.2792370046      -21.5751923951
 C         8.2490341089        1.9290610936      -21.3362281417
 O         8.8278915901        1.0076768819      -21.9261543831
 C         6.8817126746        1.7508524299      -20.6937808272
 C         6.7386786192        0.2722467918      -20.0196326976
 O         6.5064574244        0.2399092330      -18.8339915420
 C         7.0905918064       -1.0328293618      -20.8159347240
 C         6.9834097148       -2.4337766129      -20.2501338676
 C         5.4175210815       -2.8148420882      -19.9402557822
 O         4.5366900297       -1.9662032170      -19.8668673907
 C         5.1933555255       -4.3180784250      -19.9495038317
 C         6.1788786000       -4.9418098269      -18.7683860532
 O         7.3597217104       -4.7073604461      -18.6814367308
 C         5.7073831136       -6.0212556028      -17.8162338315
 C         5.6723505111       -5.7772580555      -16.3161823075
 C         5.3910413989       -4.3750286000      -15.9453167323
 O         5.2109756792       -3.5956778399      -16.8569662110
 C         5.5604812884       -3.9690725661      -14.4686287396
 C         5.3333328867       -2.4320634402      -14.2109869950
 O         5.2768006549       -1.6273147025      -15.1267171487
 C         5.3158837746       -1.7873867989      -12.8282887834
 C         4.2106074050       -0.8326385677      -12.7186870225
 C         2.8196069196       -1.3069468614      -12.0956032589
 O         2.5772055025       -2.4855983923      -12.1762583818
 C         1.8949513080       -0.2072811691      -11.5030237377
 C         2.2711825277       -0.0671724456      -10.0215974115
 O         3.1856696029        0.5733225678       -9.6570501686
 C         1.4470967039       -0.8517643213       -8.9394944189
 C         2.2729579373       -0.8773426487       -7.6104613240
 C         1.8332772070       -1.9061775314       -6.6376365764
 O         1.0660026578       -2.7969433854       -6.9755253628
 C         2.0927459739       -1.7059611182       -5.1029659542
 C         0.6689935765       -0.8608473589       -4.6401630864
 O         0.7486034301        0.2841395499       -4.3674207671
 C        -0.7014566720       -1.7463150525       -4.7045113221
 C        -1.8791570400       -0.8758389334       -4.3980997363
 C        -3.0897504882       -1.1189391733       -5.2790643245
 O        -3.2316902714       -2.1065188042       -5.9815917270
 C        -4.2306742180       -0.0366473955       -5.1595982342
 C        -5.4392059408       -0.4302186484       -6.1610244696
 O        -6.5803367813       -0.2493729206       -5.9273724730
 C        -5.1093896907       -0.9322657158       -7.5722988269
 C        -6.2538426110       -0.7375913812       -8.6169313008
 C        -5.6127796624       -0.1338365491       -9.8834159090
 O        -4.5943177413        0.5444028656       -9.7116461853
 C        -6.1096282420       -0.5528850208      -11.3184112685
 C        -7.4588192767       -1.4047736862      -11.2804633186
 O        -8.2268032666       -1.3881706404      -10.3760489042
 C        -7.7134957902       -2.0719718460      -12.6299315180
 C        -9.0184433602       -2.8741818295      -12.7572277933
 C        -9.3640891403       -3.9518470259      -11.7085266040
 O        -8.4147899837       -4.4029115037      -11.1099954730
 C       -10.8124969822       -4.4881524489      -11.4967984696
 C       -11.0667286469       -4.7841503223       -9.9425422572
 O       -11.7482654373       -5.7203967889       -9.5352357515
 C       -10.4088586992       -3.8327847858       -8.8900969797
 C       -10.0954300699       -4.5741062297       -7.5636784013
 C        -9.3451281302       -3.7384607648       -6.5497564136
 O        -9.4230365608       -2.5158430543       -6.6738211200
 C        -8.3285403549       -4.3295062378       -5.4693962723
 C        -8.4920084690       -3.6594251712       -4.0138213340
 O        -8.2951667280       -2.4529927528       -3.8398077258
 C        -8.6303161155       -4.4909427013       -2.6699795114
 C        -9.7439625969       -3.8322887404       -1.7934260967
 C       -11.1636759679       -3.7914429331       -2.4213175581
 O       -11.2338314272       -3.9058166123       -3.6514619899
 C       -12.3352028256       -3.2904957971       -1.4870789765
 C       -12.5106633488       -1.8527937086       -1.9536330155
 O       -11.9507382014       -0.8973132439       -1.4288931587
 C       -13.3781626705       -1.4373781439       -3.1831613969
 C       -12.9535141838       -0.0412803862       -3.6622739254
 C       -11.5969060279        0.1097471092       -4.3082220725
 O       -10.8134276035       -0.7957085106       -4.2198412001
 C       -11.2680315090        1.4375353144       -5.0864593896
 C       -10.8823205392        1.2473159419       -6.5737870900
 O        -9.9713725058        0.4244796585       -6.9154278134
 C       -11.6847344740        1.8870469053       -7.6965569861
 C       -10.8562174902        2.1967092614       -8.9600575433
 C        -9.9019327241        3.3999982523       -8.6479092658
 O        -9.5896271483        3.4914557141       -7.4748990334
 C        -9.2254469250        4.4358481231       -9.7342899996
 C        -7.8229035361        3.8393165497      -10.0385452136
 O        -7.4966491655        3.4222267621      -11.1068680600
 C        -6.8412860380        3.7516417095       -8.8476965015
 C        -9.9771240486        4.6742931776      -11.0159588936
 C        -9.1306877467        5.7540015029       -8.9260773399
 C       -12.4029277262        2.5884777305       -4.9573572059
 C        -9.9270610568        2.0208765568       -4.2926507280
 C       -13.4477867741       -4.2323055276       -1.8191706202
 C       -12.0285030953       -3.2133974724        0.0505212350
 C        -8.4247655320       -5.8008418844       -5.3337244687
 C        -6.9404150569       -3.8446250462       -6.0574435652
 C       -11.9958343998       -3.6303087550      -11.9775473542
 C       -10.9068851416       -5.8803153159      -12.1729442323
 C        -6.3846684307        0.7601488997      -12.0919621932
 C        -4.8204227818       -1.2187572879      -11.8529308120
 C        -4.8560098930        0.0888676878       -3.6396537155
 C        -3.6852621405        1.3273462444       -5.6332906042
 C         1.9727331905       -3.0665782425       -4.5057654565
 C         3.2063753208       -0.8107627604       -4.6179065633
 C         2.0365257654        1.2360107252      -12.1215196633
 C         0.4086838187       -0.6767490556      -11.8439909645
 C         4.6178808500       -4.7912882465      -13.5684764035
 C         7.1037438663       -4.1903829116      -14.1484680527
 C         3.6221491218       -4.6614885625      -19.6910336624
 C         5.7144880605       -4.9248537279      -21.2483793325
 C         6.7338554176        2.7614539089      -19.4742395447
 C         5.7874891462        2.1599978797      -21.6849116260
 H         9.5833628948        3.4326961750      -20.8468306379
 H         8.1685663021        4.0490625515      -21.3166978987
 H         9.3591162614        3.2886884134      -22.5000644145
 H         8.0567331316       -0.8732290359      -21.2949502630
 H         6.5767149983       -1.0378745011      -21.7861189680
 H         7.6141029647       -2.5525655518      -19.3662796751
 H         7.3498347586       -3.0443843933      -21.1089940637
 H         6.4878178396       -6.7801482805      -18.0193894291
 H         4.7383988026       -6.3885707568      -18.1248314439
 H         6.6676333964       -5.8956819145      -15.9517592476
 H         5.0944544684       -6.6234936034      -15.8008922001
 H         6.2901444651       -1.2497106124      -12.7722889995
 H         5.2924494559       -2.4956027957      -11.9556231673
 H         3.8255188251       -0.4814389219      -13.7095269783
 H         4.4936617443        0.1630543572      -12.2812313326
 H         1.1398352869       -1.8506531853       -9.2608536876
 H         0.4968477861       -0.2799285183       -8.8946770071
 H         2.4631485803        0.0378033469       -7.0389574051
 H         3.3040238414       -1.1592400112       -7.8561268461
 H        -0.5058732620       -2.4619653168       -3.8571928790
 H        -0.7653355223       -2.3682193233       -5.6558269734
 H        -1.5627159796        0.1611496446       -4.4961873516
 H        -2.2923604383       -1.1371982586       -3.3623071000
 H        -4.7769273269       -1.9874775037       -7.3445368897
 H        -4.1620701871       -0.4570249560       -7.9692443033
 H        -6.9935495351        0.0655744824       -8.2475529488
 H        -6.7766040866       -1.6217983454       -8.9157887795
 H        -6.7987017278       -2.6505625446      -12.8621620556
 H        -7.5662901716       -1.3473907288      -13.4144731468
 H        -9.1128334833       -3.3001324413      -13.7191859348
 H        -9.8174062065       -2.1597605031      -12.7157783528
 H       -11.2087140042       -3.1359870655       -8.5797994973
 H        -9.6731538341       -3.1551019786       -9.2591768018
 H        -9.5223176394       -5.5167427145       -7.7872810620
 H       -11.0185758907       -4.8683435988       -7.1312164202
 H        -7.6384244713       -4.3696056208       -2.2508404339
 H        -8.8847036326       -5.5441734043       -3.0718481787
 H        -9.3497420808       -2.7863523520       -1.5327187125
 H        -9.8581386814       -4.5008974690       -0.9427430824
 H       -14.3923696195       -1.3764766962       -2.8777554015
 H       -13.3814588942       -2.2281254080       -3.9024286390
 H       -13.1466500872        0.6346299747       -2.7523355028
 H       -13.7529144422        0.4187959454       -4.3349839612
 H       -12.3183948911        2.6897590616       -7.3777424445
 H       -12.3527185424        1.1511595840       -8.0806475863
 H       -11.4185470790        2.2486689918       -9.9470091170
 H       -10.2183116443        1.3902009828       -9.2227534356
 H        -7.1740010489        2.9956563919       -8.2285363512
 H        -6.7558337345        4.6875963851       -8.2620604952
 H        -5.8476200463        3.6801608526       -9.2585724637
 H       -10.9648060839        4.9519240545      -10.8224145077
 H       -10.0491760093        3.7396260981      -11.6438109407
 H        -9.5799346442        5.5228848889      -11.6740211768
 H        -9.9859809682        6.3764538891       -9.1049510854
 H        -8.1293074785        6.2036495934       -9.2528020764
 H        -9.0925125395        5.4977514057       -7.8574935809
 H       -12.1350739130        3.4779275233       -5.3970814793
 H       -12.7098204259        2.7839724617       -3.9918951839
 H       -13.2935099649        2.2604138516       -5.4854856040
 H       -10.0025422083        3.0710607839       -3.9557130517
 H        -9.1057309769        1.9673989378       -5.0008489543
 H        -9.5917545359        1.3886484456       -3.5349100777
 H       -14.4582870759       -3.9717960752       -1.3762981430
 H       -13.2878904703       -5.2668424231       -1.5087946191
 H       -13.7222749672       -4.1478451592       -2.9106458649
 H       -11.9355637820       -2.1548688023        0.3151857827
 H       -11.2470072813       -3.8746641038        0.2659743931
 H       -12.8937956058       -3.5328576139        0.5796738219
 H        -8.0485989641       -6.2807385274       -6.2304075300
 H        -9.3290832902       -6.1942087758       -4.9573640353
 H        -7.8400888951       -6.2689943259       -4.5472536349
 H        -6.0157630930       -4.0941005857       -5.4254015823
 H        -6.8302829336       -2.7669111217       -6.2515382853
 H        -6.7383068098       -4.3270695756       -7.0128811443
 H       -12.0140267980       -2.6024952186      -11.5854537699
 H       -12.9358423024       -3.9828136614      -11.5297245773
 H       -12.0052718015       -3.6500940015      -13.0719926524
 H       -10.2306645831       -6.6334241987      -11.7504627162
 H       -10.8760043778       -5.7481161635      -13.2379521713
 H       -11.8723473560       -6.3080019472      -12.0226561332
 H        -6.4450874683        0.5779215751      -13.1241137810
 H        -5.5340734997        1.4712005120      -12.0337139355
 H        -7.2881657925        1.2531377482      -11.6637062466
 H        -4.0342951082       -0.5421238105      -11.9053532195
 H        -4.9544505897       -1.4345977440      -12.9601001454
 H        -4.5439173544       -2.1269287930      -11.3262286413
 H        -4.0638502270        0.0564821842       -2.8243513529
 H        -5.6978939497       -0.5632136431       -3.4022778292
 H        -5.2897421844        1.1144760899       -3.5749482597
 H        -3.2852597587        1.9516723138       -4.8410510546
 H        -4.4737324849        1.8464174972       -6.1981577811
 H        -3.0683728644        1.0879990771       -6.4675493904
 H         1.9100379623       -2.9252372670       -3.4262313013
 H         2.8660684365       -3.5645978222       -4.7071812392
 H         1.1689603813       -3.6711184149       -4.8993905537
 H         4.2512421202       -1.1242782598       -4.7845648996
 H         3.3923213714       -0.9181950274       -3.5135277034
 H         3.1375291736        0.2695961223       -4.8864689112
 H         2.8542861577        1.5986246242      -11.6072990659
 H         1.0950305078        1.7703666518      -11.8556071698
 H         2.1369292065        1.3160040654      -13.1859855536
 H         0.1606951522       -1.5289491528      -11.1994072487
 H         0.4014764565       -0.9731384826      -12.8732680937
 H        -0.3837523871        0.0236902784      -11.6093706539
 H         3.5921623945       -4.6252857644      -13.7651965508
 H         4.8854079491       -4.5723506280      -12.5572520432
 H         4.7379277814       -5.9005107125      -13.7455370498
 H         7.2723739502       -5.2802109702      -13.9586203067
 H         7.2932265255       -3.8467933434      -13.1257806956
 H         7.7210675783       -3.7854826850      -14.9277302363
 H         3.3388538201       -4.7591795824      -18.6757416635
 H         3.3070854745       -5.6745702125      -20.1032224016
 H         2.9234609110       -3.9487649206      -20.2331036364
 H         6.8128730241       -4.9140989225      -21.2032571504
 H         5.4153673956       -4.4450923978      -22.1444254309
 H         5.2269806360       -5.9361544682      -21.2008876802
 H         6.7193101922        3.7783703837      -19.8424714750
 H         7.6051529113        2.5952000726      -18.8422121144
 H         5.7747811401        2.6838744993      -18.9365836050
 H         6.0981307774        3.2421148999      -21.9027654794
 H         4.7185182852        2.0931274053      -21.4103515903
 H         5.7844013766        1.6204545714      -22.6494123908
 Na       -8.7293746533       -0.8218472323       -5.3532205843
 Na        5.4292073174       -1.4554152487      -17.4612167170
