232

 C         8.6148086563        3.3276694702      -21.6412650973
 C         8.1225346294        1.9329334556      -21.3134762946
 O         8.8036744085        1.0632382726      -21.7348449725
 C         6.7853050905        1.8001506344      -20.4597312461
 C         6.6047014598        0.4039436540      -19.9795410003
 O         6.3981598500        0.2989169980      -18.7394181842
 C         6.8572476039       -0.6798188028      -20.9427044441
 C         6.8243095463       -2.0742123297      -20.2664364238
 C         5.4976433273       -2.7176027693      -19.9450584236
 O         4.5006129821       -2.0883157356      -19.5610859239
 C         5.2554386113       -4.2925357767      -20.0132820269
 C         6.2361748540       -4.9731413282      -18.9064949033
 O         7.3100232092       -4.4882636537      -18.5781426276
 C         5.6277848493       -6.1924181042      -18.0599036074
 C         5.7041838220       -5.8873124298      -16.5171440552
 C         5.4012876411       -4.4550469735      -16.0502168537
 O         4.9227575062       -3.7209866861      -16.9156419517
 C         5.7074956835       -3.9906171825      -14.5777934555
 C         5.2485187330       -2.4036190691      -14.3754586273
 O         5.2185684459       -1.6348636210      -15.3176772694
 C         5.1302971955       -1.9577032912      -12.9052539072
 C         4.2091663324       -0.6175633285      -12.6238688547
 C         2.7830241400       -1.2253524214      -12.1877192175
 O         2.6648553949       -2.4310835312      -12.0719235056
 C         1.7526576476       -0.2791747570      -11.6304026675
 C         2.2242119897       -0.3465188270      -10.1108925278
 O         3.3235808735        0.2196190274       -9.9148466965
 C         1.4347472003       -0.8204292162       -8.9199451670
 C         2.2006433693       -0.8371947834       -7.5710962369
 C         1.6278502657       -1.9321016806       -6.5624501133
 O         0.8840412879       -2.7305117582       -7.0811364895
 C         1.8955359070       -1.7169167566       -5.0822146094
 C         0.6069085706       -0.8203920176       -4.6324152218
 O         0.7000589395        0.3924866147       -4.6738519744
 C        -0.6972900415       -1.6716245691       -4.5290241908
 C        -1.8872660270       -0.7918523054       -4.1720830627
 C        -2.9778764864       -1.0394547392       -5.1794299778
 O        -2.8687152210       -1.8987218766       -6.0271175675
 C        -4.1521114895       -0.0590479912       -5.1819332576
 C        -5.4517175909       -0.5234934200       -5.9871824301
 O        -6.5357885210       -0.1334708922       -5.4913151805
 C        -5.3113922708       -1.0390007458       -7.4760564338
 C        -6.3451842799       -0.7980950567       -8.5789965372
 C        -5.5821767276       -0.2638862413       -9.8683833641
 O        -4.6459772174        0.4283145323       -9.7011864341
 C        -6.0704530029       -0.6181116011      -11.4146115506
 C        -7.3290560732       -1.5334276852      -11.5824798612
 O        -8.2167241740       -1.5908028714      -10.6896256429
 C        -7.4827167520       -2.5957087068      -12.7108494822
 C        -8.9476395074       -2.9753581827      -12.8390517248
 C        -9.2880509248       -3.8912084496      -11.6931165044
 O        -8.4292654655       -4.3926951882      -10.9884160131
 C       -10.7211538285       -4.4003129056      -11.4243327928
 C       -10.8664853060       -4.7956048735       -9.8555558222
 O       -11.5246408436       -5.7703086673       -9.5837862637
 C       -10.4091976675       -3.8635444590       -8.7688062744
 C       -10.1659146215       -4.6562300915       -7.4483921510
 C        -9.5070282042       -3.6957291331       -6.3173233361
 O        -9.5829856202       -2.5307714252       -6.4828322954
 C        -8.3801391360       -4.3204982781       -5.4220999403
 C        -8.3922730393       -3.6436851823       -4.0502635322
 O        -8.2554155223       -2.4797024860       -3.8965319680
 C        -8.6174690922       -4.5880290304       -2.7465608327
 C        -9.5420457819       -4.0367171124       -1.6592676341
 C       -10.9174760808       -3.8002506755       -2.3322718721
 O       -11.0300051693       -3.7910557822       -3.5231174682
 C       -12.1533972032       -3.1872738948       -1.4252546602
 C       -12.4033336135       -1.6467910283       -1.9264968995
 O       -11.8949914712       -0.7596118930       -1.3239225064
 C       -13.2637367670       -1.3935973904       -3.2176109504
 C       -13.1647667507       -0.0294831350       -3.9267066324
 C       -11.8217142729        0.1817195806       -4.5587165517
 O       -11.0150706415       -0.7394121480       -4.4228948705
 C       -11.3239695431        1.5822575911       -5.0897808037
 C       -10.8132829972        1.2904000479       -6.6349069470
 O        -9.8115620029        0.7309597077       -6.8479387468
 C       -11.6986230794        1.7388331909       -7.8262815181
 C       -10.8195427429        2.3057208427       -8.9945582241
 C        -9.8893634278        3.4647623415       -8.5426497226
 O        -9.6116254581        3.4783697063       -7.3512125423
 C        -9.1629866099        4.4456100641       -9.5401187376
 C        -7.8378148590        3.6154736158       -9.8982985332
 O        -7.8923124004        3.0953811012      -11.0061947424
 C        -6.6712403362        3.6550904983       -8.9850193901
 C       -10.0812318272        4.6088159767      -10.7426274394
 C        -8.9765950663        5.7780817518       -8.8330194048
 C       -12.3880252658        2.6484821016       -4.9378055120
 C       -10.0252591921        2.0068764223       -4.3403144030
 C       -13.3673795172       -4.1254803080       -1.7153323128
 C       -11.7687272284       -3.2656355552        0.1213883330
 C        -8.3349232961       -5.8859457854       -5.4326792980
 C        -6.9630655741       -3.9017539923       -5.9223886279
 C       -11.9441261088       -3.5087962406      -11.8974242507
 C       -10.7591926255       -5.7019329427      -12.2239989483
 C        -6.2689776981        0.7996471310      -12.0078879900
 C        -4.8662652831       -1.3091603891      -12.0569858058
 C        -4.6745526082        0.2634858402       -3.7671582565
 C        -3.6718048092        1.2603111098       -5.9419283630
 C         2.0045295800       -3.1153890028       -4.3408601577
 C         3.2534257546       -1.0464941063       -4.8215996672
 C         1.9451301506        1.1851321900      -12.1471437206
 C         0.2586978918       -0.7017573538      -11.7576984500
 C         4.8448807604       -4.9294844129      -13.6758188102
 C         7.1010934523       -4.0495230309      -14.0361258183
 C         3.7660839567       -4.6248989937      -19.8195239329
 C         5.7487888519       -4.8339097901      -21.3598825228
 C         6.7213030429        2.8241703748      -19.2994788939
 C         5.6109932077        1.9389149400      -21.5230996959
 H         9.4191639443        3.7701039255      -20.9579955191
 H         7.8034430410        4.0787077604      -21.5421944996
 H         9.0870284889        3.1220749677      -22.5796459251
 H         7.7878454914       -0.4789732204      -21.5346290645
 H         6.1894641118       -0.6489946793      -21.8317612154
 H         7.3770204463       -2.1507607365      -19.3048894091
 H         7.2851710585       -2.7151607560      -20.9858670443
 H         6.2443234219       -7.0728894448      -18.2970252047
 H         4.5883641631       -6.3187908785      -18.3574965009
 H         6.6789810683       -6.3418753506      -16.0060886030
 H         4.9966751507       -6.5187873051      -16.1157365579
 H         6.1572187946       -1.7372137600      -12.6183705832
 H         4.8025099545       -2.7279620701      -12.2422868304
 H         4.0216940716        0.0832858123      -13.4376034693
 H         4.6328320720       -0.0207505597      -11.8465987919
 H         1.1238943998       -1.8549344562       -9.2388528076
 H         0.4695242223       -0.2889901176       -8.8137521900
 H         2.2737840358        0.1496675918       -7.1078695338
 H         3.2562494735       -1.0819080939       -7.7825236791
 H        -0.6034947275       -2.5796699585       -3.9821759306
 H        -0.7861889705       -1.9977039650       -5.5349547284
 H        -1.5643366617        0.2726238390       -4.1497840370
 H        -2.3136120413       -1.1257656187       -3.2635608605
 H        -4.9928850399       -2.0518405606       -7.3463607825
 H        -4.4192922700       -0.5789528966       -7.8173804052
 H        -7.0719891428       -0.0795235942       -8.2895507775
 H        -6.8312376709       -1.7589945226       -8.9332138500
 H        -6.7659503941       -3.3965169319      -12.5668013338
 H        -7.0788754249       -2.2341433253      -13.6893863238
 H        -9.1095122988       -3.4803260560      -13.8501611521
 H        -9.6544672197       -2.0955810346      -12.8878386288
 H       -11.1918190619       -3.1003551243       -8.5699685178
 H        -9.5319196764       -3.2173120030       -9.0807806867
 H        -9.5715947243       -5.5252379308       -7.6356910688
 H       -11.1853257016       -5.0512811538       -7.1337960937
 H        -7.6007953597       -4.5957150230       -2.3512472439
 H        -8.9073075438       -5.4260474096       -3.2058657305
 H        -9.1786900582       -3.0476924093       -1.6258228001
 H        -9.4769986877       -4.6009725620       -0.7125081757
 H       -14.2995500078       -1.6364788350       -2.8895825505
 H       -13.0407556022       -2.2320095724       -3.8716057905
 H       -13.4885144304        0.7347890516       -3.2831957325
 H       -13.8687356065        0.1004523201       -4.7228219433
 H       -12.4083956261        2.5517796072       -7.5598220716
 H       -12.3409121472        0.8944513336       -8.1887506455
 H       -11.3469025225        2.5884269935       -9.8276448281
 H       -10.1344912054        1.6350389409       -9.5482894803
 H        -6.7593696970        2.7759066432       -8.2463228038
 H        -6.5420476442        4.5718817550       -8.4491327391
 H        -5.8369317467        3.6654355991       -9.6949646651
 H       -11.2006623916        4.3652233721      -10.6512687769
 H        -9.7492005432        3.9994064163      -11.5524884891
 H       -10.1190135580        5.6014729051      -11.0640248281
 H        -9.8345945466        6.4030170508       -9.0892902516
 H        -8.0528605016        6.1602529283       -9.0383879558
 H        -9.2234440764        5.5997517479       -7.7982208201
 H       -12.0231139425        3.6268336975       -5.4642779553
 H       -12.6455625484        2.8555233577       -3.8081479529
 H       -13.3859497052        2.4973680245       -5.3800431998
 H       -10.1300421099        3.0282688623       -4.0388689165
 H        -9.1024788471        1.8811649958       -4.9027548856
 H        -9.7927830577        1.3680393391       -3.4223329998
 H       -14.1563192809       -4.1361669296       -1.0392205067
 H       -13.0692986531       -5.1774992432       -1.7003844315
 H       -13.7999042087       -3.9423853003       -2.6484908757
 H       -11.2515586167       -2.3499052222        0.3475785564
 H       -11.2347081226       -4.2082143257        0.3550917919
 H       -12.6875868572       -3.3320467112        0.7351520677
 H        -8.0924265665       -6.3163904091       -6.4130629218
 H        -9.1898175767       -6.4766800106       -4.9805340449
 H        -7.5926020742       -6.3032888642       -4.7708360486
 H        -6.2908090440       -4.4217900478       -5.3115519132
 H        -6.5959097824       -2.9066774255       -5.8506697658
 H        -6.7198857243       -4.3172226456       -6.9370404430
 H       -12.0597223753       -2.5886190403      -11.2807032937
 H       -12.9492984180       -4.0202386194      -11.7868119444
 H       -11.8401773482       -3.3090629797      -12.9760599649
 H        -9.7559399941       -6.0333529148      -12.1908988394
 H       -11.1298157188       -5.6104364314      -13.2271215469
 H       -11.3548187090       -6.5088483194      -11.7958482599
 H        -5.8150058621        0.8735728313      -13.0342556608
 H        -5.6585733741        1.4905691043      -11.4649941115
 H        -7.2537978259        1.1781092231      -12.0119053778
 H        -3.9384199130       -0.6703920929      -11.7839787356
 H        -4.8222400471       -1.4921110747      -13.0671628971
 H        -4.7816690462       -2.2509915483      -11.5251508707
 H        -3.9979177533        0.7903746895       -3.1613972550
 H        -4.9561134412       -0.6604095967       -3.2605758154
 H        -5.5322282425        0.8955646514       -3.8028523717
 H        -3.0362259082        1.7595226711       -5.2008152500
 H        -4.5007808830        1.8493394253       -6.2362995264
 H        -3.2012674258        1.0616555798       -6.8810109087
 H         1.6335909960       -3.0219348348       -3.3743743922
 H         3.0921306936       -3.5169334444       -4.3573527746
 H         1.3134977052       -3.7433272064       -4.8312787844
 H         4.1305757270       -1.6334815483       -4.7691456616
 H         3.2990516185       -0.5784592489       -3.8583916519
 H         3.4747541501       -0.2544708627       -5.4766655384
 H         3.0192502760        1.2668248339      -12.3013080859
 H         1.4967901438        1.9256379145      -11.4769650803
 H         1.3650023809        1.3704818484      -13.0335873359
 H         0.0332406366       -1.5863031716      -11.1341361610
 H        -0.1527346445       -0.9164607283      -12.7822293101
 H        -0.2511256755        0.1254313311      -11.2365441254
 H         3.7636289674       -5.0349888094      -14.0360364651
 H         4.9232660762       -4.7435803420      -12.5716002880
 H         5.3155758171       -5.9185904335      -13.8115699960
 H         7.4774254543       -5.0112110472      -14.2179926191
 H         7.0764673371       -3.9518420163      -12.9394158832
 H         7.6716061434       -3.2993713987      -14.5914355337
 H         3.4462961421       -4.3459755291      -18.7880046370
 H         3.5603711958       -5.6350754269      -19.8443927895
 H         3.1374746630       -4.1862111246      -20.5599675853
 H         6.8375312636       -4.8596476413      -21.2418947805
 H         5.6897866815       -3.9640645455      -22.1051647909
 H         5.2449494521       -5.6657632848      -21.7142006546
 H         6.6183200001        3.8522556814      -19.7276855806
 H         7.7071396631        2.7968570012      -18.8733861534
 H         5.8395896310        2.6926423875      -18.7295357137
 H         5.8296321086        2.4763682500      -22.3737527540
 H         4.7461843242        2.3548513951      -21.0633217951
 H         5.2141434237        1.0250633574      -21.8710870955
 Na       -8.8371583936       -0.7970906166       -5.4611566012
 Na        5.4494112003       -1.2336474657      -17.5147990371
