232

 C         7.9994078311        3.6445188875      -22.0515396246
 C         7.9117418710        2.3101123787      -21.1290839196
 O         8.7245490539        1.4145668207      -21.2164909798
 C         6.5034205131        2.2399171656      -20.1991859293
 C         6.2935243441        0.7301420351      -19.6978616505
 O         6.1832541071        0.4566068320      -18.5178032646
 C         6.1636952616       -0.4068723282      -20.8344201262
 C         6.4984099292       -1.8698081190      -20.4518541911
 C         5.2579855724       -2.7269554560      -20.1880863414
 O         4.2856808763       -2.2357367855      -19.7138818051
 C         5.3285789029       -4.2401036895      -20.3967947942
 C         6.1564618781       -4.8075409803      -19.0883188579
 O         7.3135666262       -4.4491322730      -19.1090902957
 C         5.6097756036       -5.9121187921      -18.1219019154
 C         5.7588533462       -5.7742165503      -16.5913808758
 C         5.3960369527       -4.3880198816      -16.1313161332
 O         4.9256771971       -3.5871420707      -16.9196538832
 C         5.7647785127       -3.9810751220      -14.6174067063
 C         5.1983055668       -2.5711401585      -14.3231881145
 O         5.0080964726       -1.6997468403      -15.1876340047
 C         5.1315057835       -2.1867472940      -12.8988644254
 C         4.1328963386       -1.1474575684      -12.4435645905
 C         2.6211007114       -1.4963807220      -12.4592938489
 O         2.0377024440       -2.4928861535      -12.8400240566
 C         1.7246925979       -0.4489031539      -11.7027157661
 C         2.1645301172       -0.4686986411      -10.1857526083
 O         3.2489235580        0.0404157343       -9.8563005283
 C         1.3186637269       -1.0994429659       -9.1300180611
 C         1.9588515135       -0.9559969054       -7.7124353606
 C         1.5601406287       -2.0215035350       -6.7154209647
 O         0.9723175473       -3.0115781928       -7.0672196613
 C         1.7567338450       -1.8235670364       -5.0346583608
 C         0.4757519521       -0.8986507574       -4.7236182233
 O         0.4738785721        0.2792026957       -5.0539261553
 C        -0.7904533479       -1.4449135788       -4.0182515001
 C        -1.9481470971       -0.5173626249       -3.9908884530
 C        -2.8601015097       -0.5995938251       -5.1923306164
 O        -2.7017412294       -1.5046353169       -5.9662925340
 C        -4.0476999921        0.3685577965       -5.5306754076
 C        -5.1220633473       -0.4622420466       -6.2785600196
 O        -6.2934229274       -0.4588793241       -5.9104717572
 C        -4.8556696884       -1.2920866100       -7.5244926708
 C        -5.9615067142       -1.2541691262       -8.6478399597
 C        -5.5119695156       -0.3972668857       -9.8053331605
 O        -4.6824199785        0.5331420447       -9.5697103282
 C        -5.8750577125       -0.8273091207      -11.2827712389
 C        -7.1872680235       -1.6558932898      -11.3726787239
 O        -8.1316159753       -1.5332231305      -10.5916072374
 C        -7.1630135253       -2.8236215697      -12.4238580871
 C        -8.4668761121       -3.5726038600      -12.6851115315
 C        -8.9842595454       -4.3260865933      -11.4070020358
 O        -8.2191157747       -4.7328564238      -10.5439195125
 C       -10.5579109899       -4.5393166394      -11.2704485812
 C       -10.7512264841       -5.0940137545       -9.8649959527
 O       -10.9612507470       -6.2637224148       -9.8690813247
 C       -10.6827311241       -4.2296811643       -8.5488820643
 C       -10.2288570910       -4.9985704145       -7.3215612618
 C        -9.3431644098       -4.0811829707       -6.5527810472
 O        -9.5097686054       -2.9086280979       -6.6692727876
 C        -8.2464159266       -4.6121255465       -5.4526006411
 C        -8.3554292020       -3.8173283290       -4.0556731445
 O        -8.1763544586       -2.6333731596       -3.8592229807
 C        -8.6340828184       -4.6904507284       -2.7472220942
 C        -9.4062579876       -3.9396240199       -1.7256161316
 C       -10.8912497969       -3.5856644158       -2.1900820923
 O       -11.1283679625       -3.7470734374       -3.3779192758
 C       -11.9356879355       -2.8461944178       -1.2655487686
 C       -12.2634362299       -1.4455878292       -1.9488926237
 O       -11.7674949484       -0.4128466061       -1.6091991023
 C       -13.1711891848       -1.4782511587       -3.1685394142
 C       -13.1172695485       -0.1701199520       -3.9936702090
 C       -11.7022457751        0.1357004570       -4.4877762340
 O       -10.8583684468       -0.6829870145       -4.3806649832
 C       -11.3782909837        1.6122527075       -5.0798701458
 C       -10.8264305724        1.3756530810       -6.4930091664
 O        -9.6343850873        0.9999139611       -6.5958163892
 C       -11.6842052071        1.6654436402       -7.6835890797
 C       -10.9118185792        2.4640835371       -8.7546299208
 C       -10.1619741253        3.7167390113       -8.2297462542
 O       -10.3930475851        4.0679268251       -7.1136134083
 C        -9.1961004375        4.5065672905       -9.2198856737
 C        -8.1691840428        3.4400227646       -9.8067577712
 O        -8.6270297443        2.4990668830      -10.4916718978
 C        -6.7369175922        3.5293854202       -9.5033423860
 C        -9.9014045475        5.2212679749      -10.3379185772
 C        -8.4396446529        5.5711699636       -8.3572801170
 C       -12.5225596498        2.7175206426       -5.0351841614
 C       -10.1940386845        2.1955158649       -4.2357710266
 C       -13.1129040561       -3.8754462239       -1.1456098017
 C       -11.3248838863       -2.5406617894        0.1493300746
 C        -8.4245385565       -6.1014986444       -5.2958373685
 C        -6.8748208790       -4.1577905146       -6.0752817790
 C       -11.1117746607       -3.0477534091      -11.3734574411
 C       -11.0407966807       -5.4397076795      -12.4337278032
 C        -5.9058026008        0.4199776336      -12.1745826581
 C        -4.6313701801       -1.7078607234      -11.6135799662
 C        -4.5702994122        1.2287541874       -4.3242924685
 C        -3.4972515798        1.4100730068       -6.5038817457
 C         1.5559782276       -3.1921396093       -4.4119120896
 C         2.9610441865       -0.9857567559       -4.6702789750
 C         1.8761746648        0.9540113092      -12.3403846626
 C         0.2817468363       -0.8901916613      -11.9426506032
 C         5.1145319007       -4.9964032298      -13.6727150997
 C         7.3325576029       -3.9734045838      -14.4450129526
 C         3.9254438438       -4.8221150096      -20.5278181856
 C         6.1047233548       -4.4841945792      -21.6432823479
 C         6.4451583554        3.1466965179      -18.9711029159
 C         5.1170161558        2.4908654598      -21.0499629131
 H         7.6439905275        4.5468159781      -21.5381114419
 H         7.5479908368        3.5068507456      -23.0886820352
 H         9.1177707325        3.7965287767      -22.2082703333
 H         6.9821837600       -0.1310878390      -21.4953746691
 H         5.2502428585       -0.4870099039      -21.4366897146
 H         7.2096220250       -1.9675226308      -19.6522652927
 H         7.0735220288       -2.3052491589      -21.3267468632
 H         6.0575434211       -6.7763960765      -18.5342946075
 H         4.5316611978       -5.9572116047      -18.4128025343
 H         6.6474148949       -6.0428967097      -16.1285343691
 H         5.0802204335       -6.5707632879      -16.1031369419
 H         6.1744394231       -1.9877021033      -12.7088299253
 H         4.9238152855       -3.0441519031      -12.2501667741
 H         4.2605687291       -0.3305857031      -13.1250116853
 H         4.4598954802       -0.7783732413      -11.4503307892
 H         1.1127414234       -2.1365842908       -9.2836460574
 H         0.3282976076       -0.6509595997       -9.0946450866
 H         1.8094333826        0.0506369424       -7.2705026175
 H         3.0405966415       -1.1625355709       -7.7054082911
 H        -0.4574012650       -1.7939860297       -3.0494607504
 H        -1.0725017822       -2.3476430815       -4.5697793638
 H        -1.5655925533        0.4688792024       -3.7968913902
 H        -2.5851331699       -0.6920699932       -3.0936554812
 H        -4.9458847321       -2.2723757526       -7.0512928170
 H        -3.8662164172       -1.1814848314       -7.9663402713
 H        -6.8061926116       -0.9252920665       -8.0670207907
 H        -6.1927154785       -2.1700713641       -9.0266504061
 H        -6.4352236556       -3.5364462883      -11.9683097543
 H        -6.7409312848       -2.4162699231      -13.3371957944
 H        -8.2946354795       -4.4112816358      -13.4476517173
 H        -9.1284352614       -2.8474599813      -13.1017035254
 H       -11.6666255687       -3.8114708539       -8.3416507256
 H        -9.9796473629       -3.4357084154       -8.6761323084
 H        -9.7702391410       -5.9957110533       -7.5608262524
 H       -11.0980333838       -5.3086991359       -6.7466620448
 H        -7.6129009703       -4.7874512269       -2.2985035746
 H        -8.9833050223       -5.6656487369       -3.0971774707
 H        -8.8473979717       -3.0182546421       -1.4721209639
 H        -9.4346684811       -4.4584717504       -0.7614007923
 H       -14.2603034876       -1.5287400262       -2.8755147937
 H       -12.8587397856       -2.4740000040       -3.6892871580
 H       -13.6213397763        0.6169754426       -3.4351002615
 H       -13.7635034129       -0.3185806598       -4.8286522598
 H       -12.5588402845        2.2455267931       -7.3470805220
 H       -11.9949480101        0.7086101305       -8.2265625989
 H       -11.6848718369        2.8586970425       -9.5151671324
 H       -10.2436358459        1.7803976416       -9.4276255708
 H        -6.4906875156        4.4187586531       -8.9334067050
 H        -6.2330760094        3.6679510736      -10.4988180127
 H        -6.3642306688        2.6025974822       -9.0083936334
 H       -10.8655753026        5.6833927602      -10.0976262384
 H       -10.0934509133        4.5508894873      -11.1198394096
 H        -9.2341478573        5.9442679305      -10.7469232994
 H        -9.1270692494        6.3891806201       -8.1364753165
 H        -7.5640642710        6.0260773214       -8.8269524804
 H        -8.1896706355        4.9425824490       -7.4996755160
 H       -12.3561604357        3.6830445427       -5.6161339824
 H       -12.9194208173        3.0523198425       -4.0406103640
 H       -13.4627502206        2.3157447810       -5.5341887900
 H        -9.7298371069        3.0956503615       -4.6667883704
 H        -9.3827413941        1.4100452765       -4.2248177703
 H       -10.4361953637        2.4820993440       -3.2294663913
 H       -13.8161119808       -3.6339002346       -0.3669935722
 H       -12.7880590465       -4.8420140160       -0.9756912377
 H       -13.6468340848       -3.9894649213       -2.0421625073
 H       -10.6668840655       -3.3054285530        0.5531302798
 H       -12.1229182608       -2.5459092529        0.9332646382
 H       -10.9861050264       -1.5147644940        0.1285500977
 H        -8.2458750408       -6.5804951282       -6.2394822338
 H        -9.4022542254       -6.4350095023       -5.1219602294
 H        -7.5654795692       -6.5008081985       -4.6818002501
 H        -6.0478606673       -4.4601509048       -5.4551317371
 H        -6.8000567141       -3.0410760800       -6.0349829649
 H        -6.6867877949       -4.4556611821       -7.0521375483
 H       -10.4286433572       -2.3815587503      -10.8864874191
 H       -12.1497786983       -3.0095068463      -11.1535327726
 H       -11.0621415521       -2.6942824526      -12.4450431924
 H       -10.6566144181       -6.4603550001      -12.4665834171
 H       -10.5921438198       -5.0266439713      -13.3266673963
 H       -12.1058385131       -5.4126864089      -12.4150183144
 H        -5.8788094985        0.1309062092      -13.2298618321
 H        -5.0480591188        1.0148010396      -11.9347155566
 H        -6.7880647051        1.0859760593      -12.1237759088
 H        -3.6643990162       -1.3404932885      -11.3518022031
 H        -4.7139180326       -1.8814466034      -12.7171113459
 H        -4.7435366497       -2.7149433351      -11.1718660722
 H        -3.8393260722        1.8501052051       -3.8562460295
 H        -4.9584133477        0.6657257410       -3.5105172381
 H        -5.3698279854        1.8692852008       -4.6300643090
 H        -2.8141123230        2.0946667443       -6.1032286291
 H        -4.3029967566        1.9308954928       -7.0122109034
 H        -2.8748125049        0.7490621942       -7.1646008976
 H         1.5299695405       -3.0769316538       -3.2765009669
 H         2.4949071587       -3.7208551083       -4.6486906040
 H         0.6900332860       -3.7460903652       -4.8762982586
 H         3.8646262459       -1.5385539320       -4.7932261184
 H         2.7858175213       -0.6401442347       -3.7385647938
 H         3.2224484318       -0.0998456963       -5.2342495992
 H         2.9318727370        1.3807228051      -12.2324735305
 H         1.3771129472        1.5645718714      -11.6824937364
 H         1.5246940008        0.9415204376      -13.4089295446
 H         0.0979916043       -1.8574456841      -11.4927844820
 H         0.0326151537       -1.0301209443      -13.0007851707
 H        -0.4160833129       -0.0961783559      -11.7252181379
 H         4.0706458523       -4.7385438740      -13.4718813036
 H         5.4584597874       -4.8327949002      -12.6368807248
 H         5.3229593111       -5.9540389179      -13.9546781876
 H         7.7051183960       -5.0114454451      -14.4033604815
 H         7.4548758841       -3.3869517135      -13.6117996188
 H         7.8144786298       -3.4164964099      -15.2471368980
 H         3.2106062658       -4.4079664852      -19.8018749818
 H         3.8882271270       -5.9125358291      -20.5887676425
 H         3.5364712552       -4.5521774505      -21.4340747946
 H         7.1277579279       -4.4771860675      -21.3931774467
 H         5.8345671770       -3.8666667969      -22.4906570152
 H         5.9750697775       -5.5764556324      -21.9038814557
 H         6.5298689842        4.1735173056      -19.3069984278
 H         7.3795101377        2.8800415561      -18.3701667216
 H         5.5423471391        2.8166092674      -18.3865416022
 H         4.6015710839        3.3878702088      -20.8275389062
 H         4.3707484432        1.7593118630      -20.9802596811
 H         5.4443388724        2.5783415068      -22.0937794826
 Na       -8.6094645979       -1.0048337785       -5.5902893619
 Na        5.2747601691       -1.3129590242      -17.7015459912
