232

 C         7.8112359152        3.5796608205      -21.8978732655
 C         7.6719298155        2.2932632286      -21.0940840213
 O         8.6042379477        1.5382051733      -21.0273310972
 C         6.3873057054        2.1344298171      -20.2492594316
 C         6.2540502950        0.7194935467      -19.7855997426
 O         6.1500345022        0.5324631166      -18.5441961528
 C         6.1251193384       -0.2991069304      -20.8372957507
 C         6.4836579510       -1.6892216894      -20.4607877050
 C         5.2726750493       -2.6619350228      -20.1824234474
 O         4.2983484811       -2.1314164859      -19.6965337441
 C         5.3532730728       -4.2176016966      -20.5004969810
 C         6.1802809252       -4.8489844360      -19.2611615390
 O         7.3093706112       -4.4481288145      -19.0585410479
 C         5.5513121275       -5.9547181439      -18.2740122049
 C         5.7267475321       -5.7249047831      -16.7181987095
 C         5.4659699102       -4.3215084902      -16.1726209135
 O         5.0013635476       -3.5283697291      -16.9758772238
 C         5.7628496443       -4.0083951451      -14.6416805137
 C         5.3336202262       -2.5473398135      -14.2896824172
 O         5.0594627079       -1.6912820556      -15.1222597414
 C         5.1461677805       -2.1992524637      -12.6902669169
 C         4.1165067678       -1.1101621500      -12.3917863606
 C         2.6404111001       -1.4334688603      -12.4766436035
 O         2.2248689780       -2.4620641979      -12.9767503555
 C         1.6502835137       -0.4338598838      -11.7108874032
 C         2.0674416265       -0.3618456862      -10.1466254375
 O         3.2507546634        0.0463875093       -9.9957578606
 C         1.2831780425       -1.1051339741       -9.0991197625
 C         1.8471806972       -0.9443685978       -7.6862787721
 C         1.4573787240       -2.1327383120       -6.6706779110
 O         1.0039881455       -3.1905665221       -6.9831781767
 C         1.5983246309       -1.7998969947       -5.0844136675
 C         0.3589857048       -0.7579643430       -4.7836932105
 O         0.4786070704        0.3748938166       -5.1594904992
 C        -0.8289700942       -1.3704878780       -3.9578531734
 C        -2.0154486764       -0.4691883107       -3.9340041116
 C        -2.9261712422       -0.7326305481       -5.1591787249
 O        -2.6024489392       -1.5519810956       -6.0061415711
 C        -3.9831696424        0.3149697694       -5.6058811794
 C        -5.1224586651       -0.4284272371       -6.3136461948
 O        -6.2802615988       -0.2780178257       -5.8698845817
 C        -4.7679896236       -1.2969196207       -7.5585278553
 C        -5.9044413432       -1.3707504204       -8.6020346568
 C        -5.4946562339       -0.3651170780       -9.7166876317
 O        -4.9050442034        0.6385931842       -9.4483927816
 C        -5.7449989599       -0.9102196614      -11.2642617649
 C        -6.9902283491       -1.7495558701      -11.2840812869
 O        -7.9766112155       -1.4294168050      -10.6028732058
 C        -7.0669064749       -2.8983827354      -12.3443775434
 C        -8.4086292741       -3.5458376530      -12.5419289671
 C        -8.8887859660       -4.3684294645      -11.3798363363
 O        -8.2714898516       -4.9072968808      -10.4883550545
 C       -10.4695355368       -4.4172302170      -11.3068378107
 C       -10.7119232755       -5.2011869324       -9.8878074038
 O       -10.8566323560       -6.4202562464       -9.7941805191
 C       -10.8414226335       -4.3750012424       -8.5867842776
 C       -10.1720443088       -5.0494110130       -7.3213940261
 C        -9.3365274652       -4.0300799734       -6.4330163115
 O        -9.3612304866       -2.8528412175       -6.6738980256
 C        -8.2823400689       -4.6171385262       -5.4054714565
 C        -8.3879765134       -3.8628702272       -4.0694916031
 O        -8.0923451148       -2.6978452905       -3.9986635549
 C        -8.7084815047       -4.6694299049       -2.7478427794
 C        -9.4110122305       -3.8364676631       -1.7317129931
 C       -10.9036491531       -3.4874703495       -2.1805547225
 O       -11.2952567943       -3.7872444091       -3.2866097495
 C       -11.8641026265       -2.7868297737       -1.2119046906
 C       -12.2005406420       -1.4502311184       -1.9308542412
 O       -11.6777376436       -0.4378404020       -1.5317949222
 C       -13.2250410748       -1.5006731210       -3.2289964114
 C       -13.1878610652       -0.2168962351       -4.0655712123
 C       -11.7226931168        0.1594040404       -4.4322424454
 O       -10.7322211166       -0.5598028369       -4.2524015482
 C       -11.3615986294        1.4900974380       -5.0345919376
 C       -10.7843442381        1.4192301196       -6.5198449685
 O        -9.6632110905        1.0041579173       -6.6651462292
 C       -11.6809137870        1.6922729905       -7.6988150803
 C       -10.9724952232        2.5207166391       -8.8131213609
 C       -10.2750335938        3.7737998662       -8.1780084912
 O       -10.5502076394        4.1919313080       -7.0601820586
 C        -9.1719598115        4.4404236314       -9.0978260716
 C        -8.1342581737        3.4463957429       -9.8298261975
 O        -8.5894021321        2.5123876534      -10.4859793756
 C        -6.5897607345        3.4695332631       -9.6089086755
 C        -9.9390212670        5.2395456331      -10.2723525886
 C        -8.3818554945        5.5103071291       -8.2666185828
 C       -12.4831871888        2.5656764155       -5.0315948266
 C       -10.1618091439        2.1202903882       -4.1532980855
 C       -13.0459051481       -3.7310234367       -1.0353088512
 C       -11.2867434738       -2.5355353892        0.1480126864
 C        -8.3605645586       -6.1581279811       -5.3267233551
 C        -6.8354203165       -4.2455245416       -6.0109878859
 C       -11.1561937934       -2.9994506546      -11.3574466224
 C       -11.0857932961       -5.2410705095      -12.3996709259
 C        -5.9729851771        0.2288284867      -12.2835745728
 C        -4.4641223959       -1.7132297853      -11.6857482828
 C        -4.6088315218        1.2472882195       -4.4790265975
 C        -3.3758127804        1.3564359109       -6.7123976155
 C         1.5020068496       -3.1072478964       -4.2954316549
 C         2.9222171623       -1.1408055462       -4.6968799432
 C         1.7864260001        1.0270809913      -12.4201161606
 C         0.1974771636       -0.9330684993      -11.9234502965
 C         5.1723168947       -5.1000873134      -13.7398784104
 C         7.3075182746       -3.9743178776      -14.5493162108
 C         3.9479210616       -4.8390885686      -20.5484878024
 C         6.2185340508       -4.5330607539      -21.8603713955
 C         6.5520666923        3.0607553382      -19.0179504620
 C         5.1858822876        2.6252519026      -21.0413940795
 H         7.2496484530        4.4062437876      -21.3984709080
 H         7.5251230525        3.4006306524      -22.9407009831
 H         8.8037984549        3.8391252539      -21.8905024620
 H         6.5918718836        0.0725973230      -21.7609541375
 H         5.0597946785       -0.4545067183      -20.9851381802
 H         7.0890405037       -1.7226716552      -19.5600959770
 H         7.1841357687       -2.1379990261      -21.2111675986
 H         6.1611100928       -6.8183685901      -18.5110314028
 H         4.5694981440       -6.1807547693      -18.6655891333
 H         6.7831772499       -6.2107030299      -16.3620694319
 H         5.1240819919       -6.3888828404      -16.2169868868
 H         6.1613981322       -1.8632672957      -12.3711636559
 H         4.9413001156       -3.0169012459      -11.9866790626
 H         4.2986101751       -0.3687530606      -13.2154982711
 H         4.4659818940       -0.6314200606      -11.4489409794
 H         1.2079131594       -2.0999572838       -9.3904438735
 H         0.2235458053       -0.7387074782       -9.0464050095
 H         1.5207718814       -0.0020909410       -7.3192454589
 H         2.9758901743       -0.9711801362       -7.6681506843
 H        -0.3690562296       -1.6444321340       -2.9582640003
 H        -1.1058933663       -2.3534506027       -4.4333534761
 H        -1.6207298365        0.5884578866       -3.7806828089
 H        -2.5921958539       -0.5807787029       -3.0635746030
 H        -4.3724275042       -2.2749727932       -7.1648914027
 H        -3.9743350066       -0.7887017982       -8.1576073037
 H        -6.8473893878       -1.0696007830       -8.1416708296
 H        -6.1229120117       -2.3847530321       -9.0446927908
 H        -6.3710245561       -3.6667275949      -12.0911046355
 H        -6.7961309084       -2.3653351442      -13.3025505797
 H        -8.3301731032       -4.2206523959      -13.3902180866
 H        -9.0952221136       -2.7887624515      -12.7464232597
 H       -11.8606574810       -4.1622154041       -8.4346903396
 H       -10.2460546527       -3.4711704926       -8.6904551512
 H        -9.5848907010       -5.8692364323       -7.6352700194
 H       -10.9179764549       -5.5568730622       -6.6835390214
 H        -7.6404049608       -4.9603992887       -2.3497579673
 H        -9.1895129421       -5.5530289729       -3.1054923529
 H        -8.7858556117       -3.0052273967       -1.3592560219
 H        -9.6744615430       -4.3951626543       -0.7416179846
 H       -14.2670628650       -1.6290467660       -2.8701874858
 H       -12.8912923425       -2.4044946390       -3.7816268659
 H       -13.6725495694        0.6239843600       -3.4706747159
 H       -13.8241889397       -0.3299118712       -5.0064256354
 H       -12.5727423359        2.1784698986       -7.3369206509
 H       -11.9194816990        0.7239318655       -8.1923719025
 H       -11.6614199857        2.7804953563       -9.5820697929
 H       -10.1918694751        1.8923113874       -9.3328366038
 H        -6.1782564863        4.4672074048       -9.3025703052
 H        -6.2037082697        3.3496495828      -10.5905996834
 H        -6.2530189626        2.6998906187       -8.9174004132
 H       -10.8696261409        5.6323415335       -9.8013745815
 H       -10.2771592570        4.5725172120      -11.0276024252
 H        -9.3947639905        5.9712037135      -10.7564117032
 H        -9.1570710522        6.2853168828       -8.0181324242
 H        -7.6878179902        6.0412606924       -8.8703326023
 H        -7.8750978330        4.9746835213       -7.4336726050
 H       -12.2605619064        3.4943446430       -5.5438322657
 H       -12.6187833169        2.9236015527       -3.9985925085
 H       -13.4406638995        2.3022542567       -5.3497256772
 H        -9.9925510733        3.1402068611       -4.3782074957
 H        -9.2362612696        1.6113773227       -4.4595540009
 H       -10.2612912007        2.1089394279       -3.0335635485
 H       -13.7706053171       -3.3152933327       -0.3697108909
 H       -12.7906121073       -4.7667167314       -0.6685800276
 H       -13.5566026713       -3.9070960798       -1.9788024595
 H       -11.1720990917       -3.4714784318        0.6707894077
 H       -11.9728367627       -1.9997807847        0.8607092446
 H       -10.3990375021       -1.8885578364        0.0225274247
 H        -8.0465920644       -6.6295079290       -6.2679398997
 H        -9.4166616434       -6.4909169341       -5.3089165101
 H        -7.6623742232       -6.5331932958       -4.6050177411
 H        -6.2342984551       -4.6674233247       -5.2522895368
 H        -6.4664944123       -3.2457558244       -6.1422432691
 H        -6.5902020846       -4.8569542459       -6.9347866893
 H       -10.7097114524       -2.2763496490      -10.7277388722
 H       -12.1879225616       -3.1924029339      -11.2206734078
 H       -11.0390776471       -2.5562868076      -12.3522858635
 H       -10.6037424970       -6.2175322602      -12.3968433390
 H       -10.8652502529       -4.9129325032      -13.4394514193
 H       -12.1434590465       -5.3694708921      -12.0798419650
 H        -5.7122772616       -0.1279517704      -13.3434496083
 H        -5.5600653817        1.2081059232      -12.0753470272
 H        -7.0313424619        0.4283335956      -12.4009970388
 H        -3.5060446678       -1.2215563293      -11.2174585523
 H        -4.3761046635       -1.6655989617      -12.7371910739
 H        -4.4574871982       -2.7700605287      -11.3642705408
 H        -3.9929700418        2.0109772527       -4.0892604859
 H        -4.8701192779        0.6824523448       -3.5596699905
 H        -5.5628425534        1.6716487291       -4.7640282622
 H        -2.8339500600        2.2322770523       -6.2887085012
 H        -4.1963908159        1.7329408185       -7.3193131029
 H        -2.6052427853        0.7998382279       -7.2468519299
 H         1.4103426775       -2.7882508267       -3.2570093514
 H         2.5871106727       -3.5841321260       -4.3338325358
 H         0.7467170588       -3.8217372354       -4.6598896018
 H         3.6232519288       -1.9580394919       -4.5295716249
 H         2.6802247569       -0.5961062274       -3.7179952568
 H         3.5555081036       -0.4870704597       -5.2773303618
 H         2.8340133370        1.3616310506      -12.4477698924
 H         1.4263598080        1.7903846869      -11.7255121859
 H         1.3865307377        0.9520461207      -13.4105716706
 H         0.1153507475       -1.9880746232      -11.6888325370
 H        -0.2175192151       -0.7882420338      -12.9377390706
 H        -0.4966279996       -0.3130679074      -11.3877778601
 H         4.1532683873       -4.8862365233      -13.5561479153
 H         5.5336607974       -5.0622156580      -12.7578215649
 H         5.3370768758       -6.0623159096      -14.1716105354
 H         7.6372000499       -4.9124911156      -14.9106839941
 H         7.5134963855       -3.7516115160      -13.4907991005
 H         7.7382768226       -3.1299926063      -15.1523960297
 H         3.3122154423       -4.2658507935      -19.8095135342
 H         3.8666085083       -5.9027340664      -20.4737127710
 H         3.4451930528       -4.6293016696      -21.5098876748
 H         7.2670412321       -4.5243212931      -21.5846734891
 H         5.9309068217       -3.7918541326      -22.6879796229
 H         6.0731747623       -5.4614782164      -22.2381972785
 H         6.6636922940        4.1339138044      -19.3739632643
 H         7.4408436790        2.7131753988      -18.4746871320
 H         5.7014500626        2.7799588165      -18.3695261315
 H         4.9277440280        3.6474373449      -20.7319850744
 H         4.1680916381        2.0947279766      -20.9593527168
 H         5.4493181454        2.6957808166      -22.1278342630
 Na       -8.7043974775       -0.9589589579       -5.6834654923
 Na        5.0963307252       -1.5249112856      -17.6980477911
