232

 C         7.7392902091        3.6544465563      -21.9026287268
 C         7.5601119768        2.4199726672      -20.9347478393
 O         8.4192324902        1.5690117925      -20.7614115480
 C         6.1762902889        2.2905964350      -20.0687919153
 C         6.0079308227        0.7454239929      -19.7369594168
 O         5.7272059733        0.4224306555      -18.5800608652
 C         5.9086209819       -0.2164595641      -20.9620125558
 C         6.4183612336       -1.6105253425      -20.7093524966
 C         5.2303492247       -2.5765114656      -20.2929887907
 O         4.3125147673       -2.2732961030      -19.5899688152
 C         5.4429211853       -4.1615567712      -20.6398144622
 C         6.0915086042       -4.8059071888      -19.3137014759
 O         7.2031710167       -4.3929259643      -19.0055142323
 C         5.4195636340       -5.8644889743      -18.3416834915
 C         6.0234926482       -5.6948416683      -16.9208539545
 C         5.5538887337       -4.3279255328      -16.4106716112
 O         4.9873477729       -3.5644722917      -17.1735739243
 C         5.8941261426       -4.0347356146      -14.9409851045
 C         5.3263175408       -2.6378088235      -14.4922716777
 O         5.2624801966       -1.6966220705      -15.2958069197
 C         5.0506144538       -2.4009074804      -13.0232844817
 C         4.2211726255       -1.1338813616      -12.5234948324
 C         2.7680091684       -1.4849484370      -12.4917000826
 O         2.2596274036       -2.3318706764      -13.2213566877
 C         1.7220516287       -0.5597344021      -11.6742409309
 C         1.9908564373       -0.5436845812      -10.0905929604
 O         2.8997061613        0.2380706118       -9.6537188575
 C         1.2781202466       -1.4034873090       -9.1054632579
 C         1.6364180416       -1.0110526484       -7.6948610479
 C         1.2586157619       -2.1166431387       -6.7262819145
 O         1.1820630544       -3.2588027775       -7.0773466504
 C         1.2669393946       -1.7221766775       -5.2030909375
 C         0.1739946654       -0.7382269350       -4.8119273804
 O         0.2032929690        0.3318738873       -5.3971367635
 C        -0.7651405132       -0.9058598968       -3.6689979589
 C        -1.9892571440       -0.1155095252       -4.0395054457
 C        -2.8146457816       -0.5814678724       -5.2088027728
 O        -2.5534542678       -1.5807177003       -5.8683106094
 C        -3.8835221843        0.3539560915       -5.7485877784
 C        -5.0941068921       -0.4875293218       -6.4319424367
 O        -6.2198266893       -0.0680065875       -6.0864960774
 C        -4.7961729472       -1.5299200347       -7.4702035684
 C        -5.7652928250       -1.5733586714       -8.7114401745
 C        -5.6531831556       -0.4069650445       -9.8044297544
 O        -5.6579974808        0.7672761764       -9.4900283464
 C        -5.5226688713       -0.9021540456      -11.2567711591
 C        -6.7426625015       -2.0152857297      -11.3972906857
 O        -7.6848417536       -1.7876187199      -10.6243460581
 C        -6.7813786159       -3.4260176203      -12.1619020917
 C        -8.3088480785       -3.5868846787      -12.4267835125
 C        -8.9461168224       -4.3258530858      -11.2788308281
 O        -8.2626188367       -5.0093127323      -10.5322384503
 C       -10.5123667787       -4.4002968340      -11.0186189761
 C       -10.6736115633       -5.2413328496       -9.7709347640
 O       -10.6529156411       -6.4724698685       -9.7832681209
 C       -10.9358483255       -4.6297938971       -8.3944162786
 C        -9.8953066014       -5.2061497465       -7.3817670803
 C        -9.1430051787       -4.2004609721       -6.6300995965
 O        -9.2413930014       -3.0602205182       -6.8653228989
 C        -8.1920501748       -4.6930852228       -5.5224379059
 C        -8.3064437626       -3.8756875933       -4.2273429610
 O        -8.3342790809       -2.6647683311       -4.2291753830
 C        -8.8411869560       -4.6261699811       -2.9161547373
 C        -9.3606702873       -3.6358188520       -1.9376379865
 C       -10.9428183815       -3.4910851634       -2.1025128936
 O       -11.5396325797       -4.0867517081       -2.9867576508
 C       -11.7542980832       -2.6720833367       -1.0310390381
 C       -12.1447131128       -1.3761255698       -1.8183046112
 O       -11.7658337012       -0.2812759428       -1.4976205972
 C       -12.9574940091       -1.5016020828       -3.1713691633
 C       -12.8231281299       -0.2176113469       -3.9590363236
 C       -11.4272160548        0.0655060997       -4.4142806755
 O       -10.6170592365       -0.7919203046       -4.4428852898
 C       -11.2229550046        1.4983239514       -5.0266945006
 C       -10.8642691478        1.3417457763       -6.5039445530
 O        -9.7972090498        0.7015721673       -6.7600279479
 C       -11.7961019253        1.9214637623       -7.5323197432
 C       -10.9533908846        2.4557669214       -8.6658193754
 C       -10.3276179616        3.7790916520       -8.1975148764
 O       -10.6341962694        4.2303242260       -7.1329830473
 C        -9.1321040835        4.4553896237       -8.9715075407
 C        -8.1814326625        3.4392395488       -9.7212454347
 O        -8.6680295202        2.6144292362      -10.5353040159
 C        -6.6905237272        3.6438949872       -9.6612355678
 C        -9.7769297826        5.3556673068      -10.1242281120
 C        -8.2621696595        5.3424121805       -8.0024852060
 C       -12.4472076125        2.3825926507       -4.7859886604
 C        -9.9863768769        2.1482278393       -4.2609602798
 C       -13.1413027414       -3.2822343973       -0.8690805229
 C       -11.1264492285       -2.2839764297        0.2871959341
 C        -8.4458130686       -6.2137713463       -5.3173586065
 C        -6.7060008544       -4.4963372776       -6.0245479568
 C       -11.1741332091       -3.0330199726      -10.9062222238
 C       -11.0625425060       -5.1734884788      -12.1991590694
 C        -5.6856154271        0.2938450259      -12.2967046667
 C        -4.0949844947       -1.5244056621      -11.4560695684
 C        -4.3560821150        1.3918390546       -4.7811520717
 C        -3.2600196993        1.1964536476       -6.9506220806
 C         1.2367145973       -3.0615834249       -4.3740838743
 C         2.6817451152       -1.1165277587       -4.8806292987
 C         1.6698789226        1.0101499859      -12.1201994901
 C         0.3790339668       -1.3339155005      -11.9541753229
 C         5.2582964506       -5.1955259225      -14.0227178102
 C         7.4043935948       -3.9035516541      -14.7214520665
 C         4.0293206113       -4.7396590440      -20.9109493967
 C         6.4675198761       -4.4646386394      -21.8228892949
 C         6.3131613897        3.0390864307      -18.7484456029
 C         4.8608953930        2.8330756530      -20.6682575887
 H         7.3496447549        4.6414410730      -21.4832816290
 H         7.5456645913        3.3040974808      -22.9611482681
 H         8.8078705537        3.7944252354      -21.9083997999
 H         6.5595850264        0.2050238559      -21.7415199677
 H         4.8159631746       -0.2186038282      -21.2001049425
 H         7.1316406707       -1.5783030019      -19.9208952347
 H         7.0080597739       -2.0038849917      -21.5980085042
 H         5.5466945409       -6.8125802408      -18.8183768450
 H         4.3221355218       -5.6738542129      -18.3833337192
 H         7.1899319612       -5.7875511466      -16.8697978889
 H         5.7635749863       -6.5356425470      -16.2961479275
 H         6.0062397082       -2.3889663367      -12.5300794165
 H         4.5479466615       -3.2583173948      -12.5868003241
 H         4.3876692527       -0.4910877556      -13.3458115639
 H         4.7202914108       -0.7526706775      -11.6433729787
 H         1.3755288643       -2.4731731826       -9.3056751387
 H         0.2265409748       -1.1115949516       -9.3696398477
 H         1.2552386029        0.0052104439       -7.5554297963
 H         2.7277672288       -0.8872618030       -7.8143397125
 H        -0.4536047827       -0.4570831636       -2.7595084392
 H        -1.1013105622       -1.8815950134       -3.4315640789
 H        -1.7862529026        0.9333549621       -4.1064200671
 H        -2.5352450507       -0.1786788546       -3.0791169632
 H        -5.0432897049       -2.4539316722       -6.9891072257
 H        -3.7687086616       -1.6010658924       -7.7844426373
 H        -6.7812016431       -1.4256733052       -8.3898961203
 H        -5.7670025096       -2.5516973132       -9.0620303122
 H        -6.5050996350       -4.1554729974      -11.3618291876
 H        -6.2120541566       -3.3690557001      -13.0795080039
 H        -8.3842876033       -4.1933063989      -13.4293195248
 H        -8.7488543876       -2.6047528450      -12.4963703660
 H       -11.9035982400       -5.0110737717       -8.0136981278
 H       -10.8687781085       -3.5369629762       -8.3105871600
 H        -9.1953655476       -5.9096586587       -7.9396118680
 H       -10.4061630675       -5.8796107857       -6.6799028023
 H        -7.9948469504       -5.2107224113       -2.4746221487
 H        -9.5027503267       -5.4059297017       -3.1722967677
 H        -8.9764328810       -2.6664916025       -1.7727396532
 H        -9.3018445513       -4.0366702063       -0.9469561482
 H       -13.9730236627       -1.5776125534       -2.7471962714
 H       -12.6312007883       -2.3195915006       -3.8815860500
 H       -13.2249923244        0.6041503930       -3.3989337425
 H       -13.3225144016       -0.3653050938       -4.8732744007
 H       -12.4301359678        2.6813201501       -7.1021232274
 H       -12.4582456920        1.0508281119       -7.8692019651
 H       -11.4916346494        2.4776021127       -9.6610560460
 H        -9.9824794360        1.7641150036       -8.6592911459
 H        -6.3947642737        4.6062032973      -10.1471276931
 H        -6.2026819872        2.9427508538      -10.3127896055
 H        -6.3648359137        3.7059877890       -8.6224024108
 H       -10.3024529428        6.3210402453       -9.7225392134
 H       -10.4200282218        4.8772091472      -10.8455367710
 H        -8.9327292543        5.6885744788      -10.6966945637
 H        -8.9871968505        5.7868217407       -7.3231165345
 H        -7.8379796249        6.1480492866       -8.5471059519
 H        -7.4281695373        4.7876710580       -7.6028144090
 H       -12.2522750391        3.4785072855       -5.0328711009
 H       -12.4934597266        2.6539119898       -3.6793192049
 H       -13.4089034343        2.0432594404       -5.1896752701
 H        -9.7716798717        3.1383646968       -4.5940045109
 H        -9.0122059396        1.6188667937       -4.3160502704
 H       -10.3044877850        2.2648137246       -3.2269506727
 H       -13.9540813374       -2.6388567805       -0.5738407702
 H       -13.0594104858       -4.0228685523       -0.0803055773
 H       -13.4968983441       -3.8008685349       -1.7378516726
 H       -11.8162939289       -2.3523105786        1.0950004163
 H       -10.9153059078       -1.1903775505        0.2551534105
 H       -10.2472103039       -2.8531895743        0.5056766366
 H        -8.1668874596       -6.6927325787       -6.2563009500
 H        -9.4816832605       -6.4365421416       -5.0015216778
 H        -7.7036875434       -6.6434202582       -4.5798950287
 H        -5.9908470292       -4.9568648773       -5.3631691300
 H        -6.4117159159       -3.4239989874       -6.0944832088
 H        -6.6111235640       -4.9373267817       -7.0278278746
 H       -10.4869626908       -2.4266357803      -10.2835513667
 H       -12.1050778643       -3.0801113677      -10.3490108825
 H       -11.1495517274       -2.4954425575      -11.9239897852
 H       -10.6286681479       -6.1485966659      -12.2319952598
 H       -10.7122714171       -4.6543618918      -13.0831617280
 H       -12.1104457038       -5.3133702901      -12.1695745097
 H        -5.6327542435        0.0635684144      -13.3693803978
 H        -4.8308097432        0.8884314339      -12.1005028121
 H        -6.4396837001        1.0229571060      -12.1153211145
 H        -3.3463035155       -0.7961452106      -11.8366004999
 H        -4.0916281476       -2.2903889810      -12.1709862505
 H        -3.8022683280       -1.8322810251      -10.4711342430
 H        -3.4738383489        1.9145892976       -4.4523263692
 H        -4.9319312787        1.1741676378       -3.8849360107
 H        -4.9907989701        2.1178878315       -5.2786313787
 H        -2.4818891388        1.7883225848       -6.5671305309
 H        -3.9913987855        1.9152323454       -7.2457731936
 H        -2.8159628477        0.5663605944       -7.7480520378
 H         1.3787099616       -2.9852072647       -3.3345011844
 H         1.9638412373       -3.8394067565       -4.8098189482
 H         0.3074210821       -3.4336920368       -4.6698460875
 H         3.4617168125       -1.4172501212       -5.5337863027
 H         2.9774855419       -1.2799879363       -3.8655121770
 H         2.6520238586       -0.0556379144       -5.0519853299
 H         2.4550024154        1.5938790192      -11.5762763230
 H         0.8093347070        1.5148085940      -11.7688344868
 H         1.7502757096        1.1232378478      -13.2209741635
 H         0.3817090447       -2.3568282697      -11.5695037612
 H         0.3142750391       -1.3991137048      -13.0670350006
 H        -0.5592145123       -0.8764429101      -11.6144930520
 H         4.2210192267       -5.5301625408      -14.4059760411
 H         5.2483649110       -5.0235423325      -12.8897845131
 H         5.8842354299       -6.0561943829      -14.2109535563
 H         7.8785466517       -4.7568242577      -15.2026868995
 H         7.6014506034       -3.9378057860      -13.6809051258
 H         7.7048659434       -2.9585070713      -15.2179050790
 H         3.4413970830       -4.6774005464      -19.9588842601
 H         3.9972063481       -5.7229317800      -21.3176543268
 H         3.5321196113       -4.1089633123      -21.5712839733
 H         7.4250272594       -4.0209387099      -21.5382550518
 H         6.1048545455       -4.2667900082      -22.8828275233
 H         6.6457112635       -5.5258411973      -21.8800096372
 H         6.4364807420        4.0819936850      -18.9540637453
 H         6.8938469070        2.5176917737      -18.0178615909
 H         5.3465638271        2.9256367809      -18.3078640120
 H         4.8669717271        3.7353938977      -21.1357979785
 H         4.2220714804        2.9572571557      -19.8157272811
 H         4.3335286797        2.1072154289      -21.2655529050
 Na       -8.4690523196       -0.8136616666       -5.5462525092
 Na        4.7007298529       -1.1108899614      -17.3418543833
