232

 C         7.6770475021        3.5862997708      -21.7979708854
 C         7.5220596429        2.4570271607      -20.8598789609
 O         8.3230197201        1.5559869217      -20.7310112996
 C         6.0812682592        2.3315380495      -19.9954362569
 C         5.8155409045        0.8441228429      -19.7609066236
 O         5.6358317925        0.5312925609      -18.5694506290
 C         5.9048226429       -0.1319046968      -20.9054101750
 C         6.2819763109       -1.6287923830      -20.7984310754
 C         5.2972481622       -2.6393179787      -20.2393517960
 O         4.4241551362       -2.2022260133      -19.5295851356
 C         5.4191164164       -4.1395015596      -20.5825971780
 C         6.0580239720       -4.7586928437      -19.3184692644
 O         7.1865040882       -4.3828898307      -19.0701978848
 C         5.4443806018       -5.8852200849      -18.5007142866
 C         5.9595891923       -5.6058557033      -17.0779533811
 C         5.5646053537       -4.2675614348      -16.4439642690
 O         4.9499037218       -3.4520362095      -17.0961500266
 C         5.9346528759       -3.9776042652      -14.9718569602
 C         5.2791385584       -2.6374284886      -14.5811804245
 O         5.2630839279       -1.6974675399      -15.3064418222
 C         5.0374863146       -2.4431838997      -13.0740428205
 C         4.2398909343       -1.2111780986      -12.5737820211
 C         2.7452571933       -1.4301303037      -12.6177653117
 O         2.2949437931       -2.3552844000      -13.2350128917
 C         1.7072570016       -0.6286555556      -11.7031103011
 C         2.0210445674       -0.5620844137      -10.1330982397
 O         2.8398222492        0.2141531268       -9.6986503892
 C         1.3027959081       -1.4924383500       -9.1574645506
 C         1.5167177121       -1.0134512798       -7.6731550935
 C         1.3098614261       -2.1343343979       -6.7031683895
 O         1.1116766485       -3.2909828711       -7.1071328752
 C         1.2819869447       -1.7541457797       -5.2538824056
 C         0.1983914579       -0.6428962990       -4.9180620187
 O         0.1040188309        0.3724344795       -5.5667368185
 C        -0.7416291398       -0.8892898264       -3.6649255184
 C        -2.0471072166       -0.0043264546       -3.9313327859
 C        -2.7274352280       -0.5152172547       -5.2694564810
 O        -2.4378644645       -1.6412399325       -5.6636734863
 C        -3.8912811852        0.5228665710       -5.8988241474
 C        -5.1076436090       -0.3528585105       -6.4734062445
 O        -6.2496004676       -0.1164442109       -6.1150765102
 C        -4.7577282503       -1.4178260395       -7.4512579605
 C        -5.8775159455       -1.5671242641       -8.5942479978
 C        -5.7089808005       -0.4975460162       -9.6574650439
 O        -5.7241607163        0.6354276006       -9.3975344122
 C        -5.4856232846       -0.9734527437      -11.2477762737
 C        -6.6920412241       -1.9600424621      -11.3578234467
 O        -7.6663052105       -1.8261874185      -10.6499282932
 C        -6.7252974311       -3.2202283112      -12.2358074929
 C        -8.2479067307       -3.6932834175      -12.4422822927
 C        -8.8725828577       -4.3717118157      -11.1641437716
 O        -8.1896460886       -5.0160679137      -10.4203786982
 C       -10.4772398643       -4.3874333308      -11.0182761353
 C       -10.7440254593       -5.3688345944       -9.7514858357
 O       -10.6432248195       -6.5715171418       -9.8935013814
 C       -10.9637867578       -4.6903009089       -8.3654944771
 C        -9.9231756152       -5.2635188166       -7.3495414470
 C        -9.1079379378       -4.1486253943       -6.6316095071
 O        -9.1893100992       -2.9386147289       -6.9398583297
 C        -8.0810419889       -4.7427535303       -5.5135919412
 C        -8.4535477420       -3.8880242324       -4.2312717137
 O        -8.2880902154       -2.6711662408       -4.2876858144
 C        -8.8597640309       -4.5462505810       -2.8757367015
 C        -9.4311840260       -3.6446326371       -1.8204497164
 C       -11.0096137439       -3.5702828332       -1.9188950402
 O       -11.5298227352       -4.1898215482       -2.8215735706
 C       -11.7370914051       -2.6048976207       -1.0295034397
 C       -12.0861293627       -1.3099103303       -1.8648616742
 O       -11.7612050548       -0.2016206289       -1.4672024949
 C       -12.9289186750       -1.5290988371       -3.1457876915
 C       -12.9273315804       -0.2612248919       -3.9881787169
 C       -11.4744701350        0.0699204859       -4.4411055338
 O       -10.6045194801       -0.8177447208       -4.5301450965
 C       -11.1936138785        1.6218081375       -4.8785509417
 C       -10.8784790875        1.2649146642       -6.4489147815
 O        -9.8965698528        0.6343288511       -6.8303172028
 C       -11.7326439346        1.8586752234       -7.5565034386
 C       -10.8379905270        2.4560415591       -8.6887003455
 C       -10.2506053884        3.7811634711       -8.1704123229
 O       -10.6099561540        4.2167325325       -7.0612435957
 C        -9.1148648544        4.5216272620       -9.0232455301
 C        -8.2212680968        3.4867027826       -9.8244653806
 O        -8.6684258270        2.5925172856      -10.4859526136
 C        -6.7027486024        3.6908958284       -9.7048441212
 C        -9.7152808479        5.5500237593      -10.0924750952
 C        -8.3878718600        5.3092586493       -7.9575853227
 C       -12.3777296630        2.5184142491       -4.6778423796
 C        -9.8542375300        2.1357361718       -4.3654218372
 C       -13.1878643639       -3.3226668767       -0.7231920990
 C       -11.0248401972       -2.2336355957        0.3289599516
 C        -8.2410706423       -6.3895195361       -5.2204110920
 C        -6.6947694604       -4.5550665300       -6.0297974094
 C       -11.0378844755       -2.9291170712      -10.9417047523
 C       -11.1699901776       -5.1544399546      -12.2328138602
 C        -5.6545671150        0.1995170634      -12.3052187733
 C        -4.1467569317       -1.6287264921      -11.4347413575
 C        -4.5028053528        1.5132143655       -4.9155444808
 C        -3.2104935316        1.1245680605       -7.0839903422
 C         1.2014541904       -3.1717007288       -4.4318843387
 C         2.6349636510       -1.0796151860       -4.8089352526
 C         1.7269016811        0.8038922530      -12.0700793310
 C         0.3626307674       -1.3246684610      -11.9065337921
 C         5.3448489885       -5.1620758807      -14.1272711423
 C         7.4758752906       -3.8847883065      -14.7164354188
 C         4.0707711673       -4.8316755705      -21.0333852712
 C         6.4410776746       -4.3792592872      -21.6928306703
 C         6.3107368592        3.0229360257      -18.5237131204
 C         4.7948711188        2.8081415303      -20.7221623359
 H         7.2852215339        4.5264753421      -21.2808561383
 H         7.1938780169        3.1700371404      -22.7219742821
 H         8.7224575247        3.8151161466      -22.0946828879
 H         6.6028988910        0.2563668501      -21.6550184202
 H         4.8553824284       -0.0808183042      -21.1680202477
 H         7.1737818165       -1.7399444386      -20.1588698609
 H         6.6565103107       -1.9415323080      -21.7957212623
 H         5.9199119433       -6.7147153731      -19.0198935255
 H         4.3993148476       -6.0610699963      -18.5843257219
 H         7.1561063080       -5.6974287179      -16.9307413455
 H         5.6569519557       -6.4104060755      -16.4872497758
 H         5.9961466469       -2.4061757536      -12.5565845371
 H         4.5356734366       -3.2696407006      -12.6232329578
 H         4.6772133166       -0.4746756594      -13.2174741053
 H         4.6108801602       -1.1067848233      -11.5636949251
 H         1.7006085218       -2.4435025732       -9.2775635541
 H         0.2469361745       -1.5520330918       -9.5146756326
 H         0.9825371264       -0.1190640024       -7.5014845489
 H         2.5875230642       -0.6957141883       -7.7716516550
 H        -0.3466608879       -0.4847084064       -2.7274969388
 H        -1.1290239220       -1.8919164208       -3.4930892276
 H        -1.7781821611        1.0927232776       -4.0006879780
 H        -2.6275118441       -0.0448262708       -3.0749435057
 H        -4.5784839633       -2.4298247306       -7.0812760792
 H        -3.8523275205       -1.1441619623       -7.9809830120
 H        -6.8439085723       -1.5516308943       -8.2635681007
 H        -5.7674438148       -2.5613655273       -8.9918969919
 H        -6.2550311284       -3.9523714921      -11.6277621651
 H        -6.2671761664       -2.9586206340      -13.2121632541
 H        -8.0868605096       -4.5218337899      -13.1172671103
 H        -8.8346010246       -2.9004065474      -12.9140094491
 H       -11.9195946726       -4.6720899752       -7.9105221915
 H       -10.5951700065       -3.6663389194       -8.5075410199
 H        -9.2487645538       -5.9331125859       -7.8749200126
 H       -10.4498755331       -5.9242082153       -6.5971462927
 H        -7.8949671494       -5.1023443977       -2.5576492165
 H        -9.4438170404       -5.4181399464       -3.1316243636
 H        -9.3204055043       -2.5926952857       -1.8454905506
 H        -9.0711120322       -3.8372129892       -0.7615434961
 H       -13.9619219844       -1.8052681571       -2.7195013726
 H       -12.4035537384       -2.3335525588       -3.7420192360
 H       -13.1780394120        0.5301814175       -3.2697190842
 H       -13.5807168070       -0.3564492947       -4.8499150424
 H       -12.3953703223        2.6934659381       -7.1891501668
 H       -12.4286947347        1.0057460751       -7.8515481581
 H       -11.5019662885        2.7995580345       -9.5270908895
 H       -10.0147630082        1.7430231491       -9.0052432148
 H        -6.2567959723        4.5561809257      -10.2697106554
 H        -6.3702973383        2.9043564861      -10.3242572974
 H        -6.3100886136        3.7384865972       -8.6920167272
 H       -10.2692870287        6.3553263518       -9.6555204914
 H       -10.2792081284        5.1052593961      -10.9177219614
 H        -8.8711753330        6.0056209713      -10.5571566348
 H        -9.1190055419        6.0413743964       -7.5618684830
 H        -7.6172393260        5.8324698479       -8.4674980937
 H        -7.8377984023        4.6658978521       -7.2397955666
 H       -12.3622384385        3.5310480330       -5.1251258139
 H       -12.5457293181        2.9027836879       -3.6198148655
 H       -13.2559566796        1.9348090351       -5.0769961896
 H        -9.4750738405        2.8845348442       -5.0486058474
 H        -9.0754596078        1.3756010251       -4.4162551985
 H        -9.8540098085        2.6049473569       -3.3239290657
 H       -13.8919852783       -2.7487621929       -0.2645413300
 H       -12.9766848996       -4.1567538601       -0.0465049024
 H       -13.6652544035       -3.6729040301       -1.5848507465
 H       -11.8023411893       -1.9828601872        1.0417963031
 H       -10.3924438277       -1.3365782877        0.3148726035
 H       -10.5371384556       -3.1365796438        0.7672614020
 H        -7.9256553837       -6.9215280873       -6.1236172467
 H        -9.3533827466       -6.5044572253       -4.9645396966
 H        -7.6795196479       -6.7925259779       -4.4052010428
 H        -6.0146255661       -5.0322430930       -5.3772356501
 H        -6.4213367997       -3.5405637926       -6.0767091617
 H        -6.5649119819       -4.9933882191       -7.0741086143
 H       -10.4202245950       -2.2075742858      -10.3709283068
 H       -12.0291605552       -2.9225215356      -10.4632091419
 H       -11.0258517980       -2.6051446755      -11.9763525891
 H       -10.8529543470       -6.1601970558      -12.1250885855
 H       -10.8998948124       -4.7547848288      -13.2104939974
 H       -12.2608015148       -5.2292867854      -12.1478853882
 H        -5.8467390753       -0.1110110035      -13.3549917906
 H        -4.7290382660        0.7481445590      -12.3708758002
 H        -6.2929099362        0.9823091066      -12.0014421658
 H        -3.4274335491       -0.8593339661      -11.8553192451
 H        -4.1253925343       -2.4073445764      -12.1278170070
 H        -3.8312636001       -1.8901854353      -10.4269534587
 H        -3.8202527482        2.2181198411       -4.5590304260
 H        -5.0074565068        1.0878033684       -4.0642920328
 H        -5.2892855148        2.0484019257       -5.3903643452
 H        -2.2466625210        1.5300004443       -6.6913199098
 H        -3.7420693702        2.0218245777       -7.3657465482
 H        -3.0068004690        0.4942483254       -7.8970990220
 H         1.2649318149       -3.1216951474       -3.3166573198
 H         2.0359744408       -3.8179166787       -4.8088801906
 H         0.2849912623       -3.6837547554       -4.8516463825
 H         3.4496691523       -1.2422669775       -5.4374243531
 H         3.0098681771       -1.3849263414       -3.8045761349
 H         2.4616373979       -0.0599934152       -4.8245753453
 H         2.4740390767        1.3605253854      -11.4911445100
 H         0.7156245037        1.3467394974      -11.7603987904
 H         1.8329939871        0.9517693771      -13.1459969804
 H         0.2652142868       -2.3155265338      -11.4515546988
 H         0.2484944399       -1.4274643682      -13.0077207727
 H        -0.4859795804       -0.7589124442      -11.5261993263
 H         4.3556281643       -5.4286476320      -14.4446666521
 H         5.4298193183       -4.9977725011      -13.0851741219
 H         5.9654418613       -6.0942690150      -14.3460628804
 H         7.8874477721       -4.8394700807      -14.8030213569
 H         7.6828310307       -3.5738771562      -13.6651879803
 H         7.8145975887       -3.1965441173      -15.4782733818
 H         3.2488114051       -4.7847740065      -20.3527494729
 H         4.3164295192       -5.8410063198      -21.1814215738
 H         3.7842647091       -4.4033358823      -22.0535211040
 H         7.4207152788       -4.0615017804      -21.2826278935
 H         6.2369203963       -4.1453831205      -22.7596831920
 H         6.4578925928       -5.4165108165      -21.7489174674
 H         6.2117485487        4.1557308692      -18.6408695463
 H         7.1467323264        2.5676539442      -18.0337845954
 H         5.4838471460        2.6984119259      -17.8816100511
 H         5.0527187792        3.7902494983      -21.0670735303
 H         3.9519778042        2.9418413933      -20.0374962048
 H         4.4338745835        2.1822189556      -21.4744676582
 Na       -8.2992533561       -0.9048109897       -5.6406156895
 Na        4.5866506350       -1.0667000323      -17.3682608418
