232

 C         7.4786527660        3.7574554295      -21.6620727428
 C         7.3377046956        2.3450435804      -20.6882121991
 O         8.2507136215        1.5293839829      -20.5505433567
 C         6.0592798252        2.3824930172      -19.8871089730
 C         5.6658880341        0.8420461677      -19.6389937562
 O         5.4798160830        0.3778946876      -18.5351016280
 C         5.4931569094       -0.0449234752      -20.8624060927
 C         6.1744289229       -1.4694213399      -20.7757357761
 C         5.2431052238       -2.5749168604      -20.3761379234
 O         4.3254844977       -2.3178390850      -19.6087677824
 C         5.5493433803       -4.0530490094      -20.7480434932
 C         6.2002948363       -4.6003050206      -19.4233950082
 O         7.2898878472       -4.2197893503      -19.0409448196
 C         5.5067067287       -5.6657075770      -18.5253989592
 C         5.8167508577       -5.6621312092      -17.0430662457
 C         5.5012851170       -4.2727031343      -16.4835768834
 O         4.9228953205       -3.5648020490      -17.2579774299
 C         5.9146780120       -3.8678508286      -14.9640921477
 C         5.3442484945       -2.5715337147      -14.3722201677
 O         5.1604626117       -1.5254307117      -15.0687881132
 C         5.0863606049       -2.4954341346      -12.8792974336
 C         4.1454934613       -1.2241388679      -12.5232172537
 C         2.6837560105       -1.5894319032      -12.6124011906
 O         2.3350990729       -2.4971224067      -13.3581173293
 C         1.6262615374       -0.7052935905      -11.7929263636
 C         2.0687618119       -0.6647098055      -10.2573729522
 O         3.0460679854        0.0700577447       -9.9543246282
 C         1.5092371137       -1.6778111080       -9.2549259292
 C         1.4391462433       -1.0549591071       -7.8551624134
 C         1.1968789330       -2.1345164556       -6.7598757355
 O         1.0179834625       -3.2871096388       -7.0036965501
 C         1.2944174880       -1.7509310833       -5.1790237998
 C         0.0397183098       -0.6706588020       -4.9477990719
 O         0.0103122002        0.2153514290       -5.7993135730
 C        -0.8663208984       -0.7298245333       -3.7058472765
 C        -2.0572280349        0.1237314348       -3.9967893724
 C        -2.8002485661       -0.2926955101       -5.2139092939
 O        -2.7795977794       -1.4526139278       -5.6350564334
 C        -3.8783556863        0.6149743699       -5.9510871033
 C        -4.9215209139       -0.3945477609       -6.4801245084
 O        -6.0613368343       -0.1734197886       -6.0661295465
 C        -4.7287832042       -1.5065946737       -7.4741482293
 C        -5.8217369131       -1.6767133952       -8.4960567535
 C        -5.6522951686       -0.6314872316       -9.6289030808
 O        -5.6544157326        0.5818523968       -9.3924780440
 C        -5.6780181366       -1.1904592430      -11.0486610762
 C        -6.9197383705       -2.0897965596      -11.2168646093
 O        -7.9613424665       -1.7363046668      -10.6913180161
 C        -6.9790427385       -3.0567126061      -12.3875938778
 C        -8.1555288057       -3.9880010364      -12.5399454881
 C        -8.6958342339       -4.4812624847      -11.2460297984
 O        -8.0156178539       -4.7990528025      -10.2575060883
 C       -10.2592903647       -4.5358134898      -11.1763110224
 C       -10.6400858052       -5.3320651082       -9.8237928512
 O       -10.8008289287       -6.5316145281       -9.9260771428
 C       -10.8466485464       -4.6094295679       -8.4434131917
 C       -10.0489959936       -5.2861028919       -7.2608300288
 C        -9.0606762125       -4.3115983988       -6.6139576641
 O        -8.9991423467       -3.1739962352       -6.9419155258
 C        -8.0777867736       -4.7893243745       -5.3669170066
 C        -8.2794348439       -3.8650480789       -4.0930050730
 O        -8.1432429180       -2.6745216791       -4.0824693544
 C        -8.8809400309       -4.6049287434       -2.7953948202
 C        -9.4155807392       -3.5852196376       -1.8557582786
 C       -10.9691299180       -3.6429108981       -1.8419364996
 O       -11.6006474420       -4.4889258653       -2.4566771289
 C       -11.7895316809       -2.6330105612       -0.8701155053
 C       -12.1047984941       -1.3655443884       -1.7517650435
 O       -11.6790537287       -0.2932081572       -1.4269919165
 C       -12.9198431346       -1.5222372037       -3.1469455025
 C       -12.8423847321       -0.1910030127       -3.9924736750
 C       -11.4089922067        0.0743904107       -4.4835424087
 O       -10.5780394628       -0.7916592978       -4.4813422656
 C       -11.0777938437        1.5840450941       -5.0833614587
 C       -10.8572765300        1.2040658226       -6.5855065226
 O        -9.9286098114        0.4451204589       -6.9188482051
 C       -11.7154144488        1.7924589448       -7.7346774485
 C       -10.9717419634        2.5638765583       -8.8134981781
 C       -10.2180741867        3.7882218882       -8.1573164024
 O       -10.4661636245        4.1750899130       -7.0660823265
 C        -9.0807636106        4.5695332352       -8.9353491574
 C        -8.1650461478        3.6242008402       -9.6956188585
 O        -8.7412939648        2.8060385634      -10.4521809384
 C        -6.6728394597        3.7313786801       -9.8602548186
 C        -9.8224058067        5.5355660092       -9.9743540767
 C        -8.1892782252        5.4725195467       -7.9205840359
 C       -12.1029792955        2.7832760575       -4.6913715138
 C        -9.6416435219        1.9328129741       -4.3931852445
 C       -13.0371871764       -3.3104146162       -0.3667159464
 C       -10.9421319714       -2.1233096254        0.4035566051
 C        -8.2019723477       -6.3848587215       -5.1153433609
 C        -6.6174239206       -4.3194500133       -5.8936144746
 C       -10.6000099820       -2.9966991498      -10.9192858791
 C       -10.9754690892       -5.0390917088      -12.3635039161
 C        -5.8129307246       -0.0137770138      -12.0058826768
 C        -4.2896195451       -2.0370184522      -11.1747029099
 C        -4.3974404947        1.7033809598       -5.1075573307
 C        -2.9414776561        1.2790414936       -7.0937669473
 C         0.9792540992       -3.0295512409       -4.2835483856
 C         2.6027065768       -1.1366296207       -4.7770927459
 C         1.7971628788        0.7035663687      -12.4526395969
 C         0.1764054760       -1.1776037362      -11.9634450465
 C         5.5235256500       -5.1063755951      -14.1005638582
 C         7.5065454588       -3.8335977468      -15.0158667294
 C         4.1589708128       -4.6405002950      -21.0042184802
 C         6.5265343676       -4.2214505421      -21.9428642629
 C         6.2410343289        3.1661148812      -18.5978046683
 C         4.8232181093        3.0485654027      -20.7203748577
 H         7.4481689867        4.5808563001      -21.0129752215
 H         6.8008656586        3.7184510871      -22.4581044846
 H         8.4017998341        3.7914261308      -22.1212873250
 H         6.2000324377        0.3600745227      -21.5601425475
 H         4.4116648530       -0.0636701469      -21.1138435940
 H         7.0605699711       -1.5222390389      -20.1450233994
 H         6.5684983638       -1.6673250238      -21.7657700032
 H         5.6714183744       -6.6447466421      -18.9892984055
 H         4.4062608440       -5.4928916586      -18.6496775872
 H         6.8328971189       -5.8954675913      -16.8225037411
 H         5.2436721152       -6.5283348260      -16.5844988393
 H         6.0977369477       -2.2532423554      -12.4972101589
 H         4.7423571215       -3.3522984985      -12.2572609002
 H         4.4756750930       -0.5367647988      -13.3492804887
 H         4.4139440386       -0.8886682101      -11.4953480783
 H         2.3820450975       -2.4390563122       -9.2112732587
 H         0.6165948748       -2.1767099773       -9.5867631467
 H         0.6376948528       -0.2772279064       -8.0034745844
 H         2.3085684344       -0.4808588307       -7.6506647802
 H        -0.3069093203       -0.3662567832       -2.8076889597
 H        -1.3007332692       -1.7466522686       -3.5852261591
 H        -1.7723837318        1.1393241676       -3.8945937195
 H        -2.9222527145        0.0212145435       -3.2227663404
 H        -4.7028171100       -2.4921007267       -6.9695121219
 H        -3.7489300561       -1.4890916555       -8.0021777782
 H        -6.8291150377       -1.5860834978       -7.8656080850
 H        -5.8755015718       -2.7459042140       -8.8412108498
 H        -6.1011924564       -3.7004545648      -12.1609864988
 H        -6.9182700047       -2.3853241969      -13.2101944356
 H        -7.7686056122       -4.8590533921      -13.1277901368
 H        -8.9312646509       -3.5262163611      -13.1182768557
 H       -11.9406102176       -4.6577160191       -8.1771899710
 H       -10.5960405006       -3.5584992005       -8.4579729137
 H        -9.4637964527       -6.0826583405       -7.7350450643
 H       -10.6632511052       -5.7687179161       -6.5639916500
 H        -8.1116876929       -5.1273931426       -2.2959601039
 H        -9.5010281116       -5.4746124978       -3.1222006023
 H        -9.0224657100       -2.5153742900       -1.9684748512
 H        -9.1871341699       -3.7270387747       -0.8277058319
 H       -13.9418981234       -1.6723731000       -3.0239965782
 H       -12.4084931296       -2.3118063162       -3.6224555530
 H       -13.2288099852        0.5729214528       -3.3039608638
 H       -13.4552343450       -0.3777046866       -4.9223598745
 H       -12.4254259581        2.4568943747       -7.3070820330
 H       -12.3086427210        1.0034204017       -8.1401676095
 H       -11.6562125664        2.9059602669       -9.5126362900
 H       -10.2473965295        1.8780453051       -9.1823708917
 H        -6.4108014125        4.6762249536      -10.2600184651
 H        -6.2568176623        3.0599295683      -10.6182570745
 H        -6.2323345568        3.6741459563       -8.8676002507
 H       -10.6358719453        6.1486971024       -9.4648226127
 H       -10.1928226708        5.0342540290      -10.8148109465
 H        -9.1706569703        6.3273412423      -10.3181802736
 H        -8.7403411121        6.4219871402       -7.7338848062
 H        -7.1655883777        5.6114669535       -8.3474370488
 H        -8.0272039700        4.9544852053       -6.9517835008
 H       -11.6544002591        3.7207647664       -5.0007237098
 H       -12.3434705212        2.8763965460       -3.6678256973
 H       -13.0190492194        2.7760185945       -5.1646485653
 H        -9.0774570330        2.7434115526       -4.8906553473
 H        -8.8989036231        1.0976421430       -4.4471670010
 H        -9.7818109282        2.1132608793       -3.3656987938
 H       -13.6528639592       -2.5999434661        0.2985686654
 H       -12.8279823219       -4.2080112027        0.2342022840
 H       -13.7539425429       -3.4191037601       -1.2254894694
 H       -11.0486450928       -1.0654606911        0.7046826783
 H        -9.8726760691       -2.2054575093        0.1256602198
 H       -11.2495974370       -2.6954872282        1.2711463311
 H        -7.8403468182       -6.7930501147       -6.0519317412
 H        -9.1119505543       -6.6649429048       -4.7017102095
 H        -7.4798131755       -6.6699172757       -4.3045917802
 H        -5.7399373557       -4.4199519873       -5.2056164776
 H        -6.8409181385       -3.2168641085       -6.0674041442
 H        -6.3478926519       -4.7431093914       -6.8113757805
 H       -10.0819541151       -2.6679636552      -10.0635174678
 H       -11.6238609802       -2.8853025861      -10.6497288282
 H       -10.4468507855       -2.4090012191      -11.8325816180
 H       -11.0007667581       -6.1655428313      -12.4650222187
 H       -10.7348623011       -4.4197435360      -13.2615396084
 H       -12.0500963341       -4.7770585445      -12.2420338517
 H        -5.7795088370       -0.3948862799      -13.0268392798
 H        -4.9727027571        0.6919087795      -12.0340464811
 H        -6.6826610595        0.6687913989      -11.8556756838
 H        -3.4923588651       -1.3743883043      -10.8840264412
 H        -4.1600527317       -2.1458702060      -12.2863825951
 H        -4.2841534018       -3.0075405977      -10.6453599257
 H        -3.5569120383        2.3995777412       -4.9124371010
 H        -4.8117221981        1.4229409256       -4.1502574169
 H        -5.1858846586        2.3356816678       -5.5414322238
 H        -2.1608723538        1.8023408575       -6.5821985743
 H        -3.5175219801        2.0350745418       -7.6672390945
 H        -2.5464582648        0.4985889637       -7.8519481620
 H         0.9122579092       -2.6102347152       -3.2958672258
 H         1.8017048339       -3.7658719957       -4.2306747938
 H         0.1084506835       -3.5096185056       -4.6354848494
 H         3.4592051612       -1.8932803847       -4.9399013357
 H         2.7909753439       -1.0037589949       -3.7159768516
 H         2.7632994907       -0.1170686672       -5.3295751957
 H         2.8617615461        1.0797344069      -12.4906396100
 H         1.1888328460        1.3984031524      -12.0081951558
 H         1.3725409490        0.6708428446      -13.4791350075
 H        -0.0359877191       -2.2211322744      -11.8563579146
 H        -0.2526936429       -0.7837437560      -12.8645631100
 H        -0.3290579216       -0.7984310631      -11.0762893896
 H         4.4270807068       -5.0988609902      -14.0726234110
 H         6.0387280071       -4.9906485606      -13.1348520059
 H         5.7114252476       -6.0412775920      -14.4289310809
 H         7.9538161171       -4.8555988704      -14.8704264927
 H         7.7913025942       -3.4137584650      -14.0916222081
 H         7.7873650058       -3.2622394358      -15.9150939551
 H         3.3007304296       -4.2247037148      -20.3750639262
 H         4.2022370812       -5.7356881297      -20.6592011024
 H         3.9818039196       -4.5790714127      -22.0381149706
 H         7.4860393398       -3.8003125766      -21.7534465456
 H         6.0999722684       -3.5944098348      -22.7418334068
 H         6.5091770001       -5.2339906244      -22.4089369275
 H         6.1267253199        4.1748467189      -18.8956143718
 H         7.2805282682        2.8676932206      -18.3284812744
 H         5.6028749001        2.9541829183      -17.7121401688
 H         4.8868979766        4.1538294052      -20.5804796757
 H         3.8168291235        2.5890597991      -20.4826727026
 H         4.9320979641        2.7458758112      -21.8466717631
 Na       -8.4809289999       -1.1131305766       -6.0272572320
 Na        4.3823129199       -1.2977157099      -17.4321395086
