232

 C         7.5393365506        3.6839420500      -20.5413367793
 C         6.9021727823        2.3573359877      -20.2980304412
 O         7.4121846567        1.2969325069      -20.6406494883
 C         5.5686534642        2.5430117860      -19.5944574583
 C         4.9994350307        1.0909319814      -19.2297882610
 O         4.9502794950        0.7352551446      -18.0264078012
 C         4.5604614033        0.2041092457      -20.3789719816
 C         5.5979493694       -0.8964643388      -20.7409098671
 C         4.9422406622       -2.2984043369      -20.4081383319
 O         3.8999305708       -2.4352845775      -19.7921404946
 C         5.7078859192       -3.5501959975      -20.9103623878
 C         6.2774603090       -4.1494452133      -19.5825356131
 O         6.9807370502       -3.4669964038      -18.8995429036
 C         5.9082562976       -5.5339120557      -19.0428629127
 C         5.9141646091       -5.6192555237      -17.5047861525
 C         5.2402398555       -4.4551657073      -16.7668453324
 O         4.2826523527       -3.9378717915      -17.2574238878
 C         6.0020703843       -3.7422379537      -15.5394553331
 C         5.1957591085       -2.6777058087      -14.7687003117
 O         4.7233279736       -1.6965739138      -15.3589234654
 C         5.2749848541       -2.5178016843      -13.2221809040
 C         4.3123743049       -1.4194381139      -12.7216703715
 C         2.8992818230       -2.0249102842      -12.5194330374
 O         2.7053029538       -3.1803323365      -12.5499109855
 C         1.6426394526       -0.9388028623      -11.9722315205
 C         2.0887699789       -0.8545877718      -10.5046270533
 O         3.0541695574       -0.1259495226      -10.1903639289
 C         1.3108409213       -1.5846218670       -9.3667128255
 C         1.8663310229       -1.3972074518       -7.9157011699
 C         1.0711864654       -2.2432584815       -6.8470262673
 O         0.4687678904       -3.2971886496       -7.1213492256
 C         0.9596013505       -1.6102065326       -5.3739934807
 C        -0.0713715880       -0.4867566328       -5.4439262761
 O        -0.4607887875       -0.0499755803       -6.5005540072
 C        -0.7411348467       -0.0670575079       -4.1581292763
 C        -2.0250675059        0.8240702640       -4.4510889262
 C        -3.2116597722       -0.0218548806       -5.1313017131
 O        -3.5516245945       -1.1144343614       -4.6923728970
 C        -4.1146472229        0.7194884148       -6.0375291413
 C        -5.3304756670       -0.3113072143       -6.4389201261
 O        -6.4491997637        0.0378960771       -6.0240732107
 C        -5.0450864454       -1.6670543878       -7.2605960373
 C        -6.0138732294       -1.5462361786       -8.5043488646
 C        -5.5849415591       -0.5522053500       -9.6777926007
 O        -5.5328679442        0.5930604418       -9.4563936748
 C        -5.4046460116       -1.1972396027      -11.0863615321
 C        -6.9434142875       -1.8724446502      -11.3073285929
 O        -7.9301076756       -1.3907737359      -10.8574659202
 C        -6.9508994115       -3.2845430547      -12.0638957873
 C        -8.4070662361       -3.7463651950      -12.4673576259
 C        -9.0405009044       -4.5026484329      -11.3309007405
 O        -8.3348069139       -4.8274067611      -10.4278752169
 C       -10.5343987123       -5.0208010372      -11.2294135738
 C       -10.4776096376       -5.6327633156       -9.6518552156
 O       -10.6082404341       -6.8133135286       -9.4860832972
 C       -10.2150452916       -4.6944184995       -8.4535731834
 C        -9.3824659224       -5.4524130065       -7.4148911832
 C        -8.7036847569       -4.4341509626       -6.5348010569
 O        -8.5919619498       -3.2976485079       -6.9685567356
 C        -8.1368609967       -4.8430230602       -5.1832094041
 C        -8.3600073276       -3.9390521634       -3.9643587089
 O        -8.0172305447       -2.7272974136       -3.9210701091
 C        -9.1726038043       -4.5912435618       -2.8396047206
 C        -9.5343439490       -3.5813896995       -1.6930699911
 C       -11.0028859970       -3.7168323236       -1.1837143068
 O       -11.6870258356       -4.6846754572       -1.3828124900
 C       -11.5830177852       -2.4814416229       -0.4084269764
 C       -11.5235938365       -1.3796776595       -1.5343819772
 O       -10.7508176393       -0.4381808170       -1.4678704930
 C       -12.2770712618       -1.5156819349       -2.8556959559
 C       -12.2547655428       -0.2302962748       -3.6016022342
 C       -11.0949621478       -0.1343843867       -4.6013535669
 O       -10.3736698703       -1.0936762729       -4.8120273659
 C       -10.5997958097        1.2035899231       -5.1303551911
 C       -10.3637899748        1.1734746611       -6.6728370619
 O        -9.5023938476        0.4240021411       -7.1582223969
 C       -11.2974269634        1.8337593023       -7.6356420975
 C       -10.6059371554        2.6568154617       -8.7036100869
 C        -9.6396777552        3.7042474922       -8.0432629757
 O        -9.1798540715        3.5409876460       -6.9386359828
 C        -9.0801630723        4.8328992307       -8.9895229428
 C        -8.1387464857        4.0164682807       -9.9417071810
 O        -8.5765837999        3.5760342130      -10.9544062573
 C        -6.5544132136        3.8881393708       -9.6302719766
 C       -10.2430260853        5.5787358548       -9.7412105370
 C        -8.2288380947        5.9008927579       -8.2754255493
 C       -11.5594205229        2.3048356760       -4.7321195209
 C        -9.2050591851        1.5224131548       -4.4463395164
 C       -12.9652070643       -2.7055746617       -0.0082512440
 C       -10.7194672696       -2.0219490530        0.7883212013
 C        -8.5045703920       -6.4403547065       -4.8433075118
 C        -6.5855376144       -4.8705479214       -5.3942960521
 C       -11.4993893492       -3.8370616432      -11.3335326991
 C       -10.9065431061       -6.1580790457      -12.2540678370
 C        -5.0628218204       -0.2471203263      -12.1436716988
 C        -4.3810322354       -2.3905469539      -10.8795797192
 C        -4.5862122141        2.0336458498       -5.3363193411
 C        -3.4404814129        1.0899934377       -7.3589330020
 C         0.5593844401       -2.7235919167       -4.2452144488
 C         2.3276445026       -0.9801105572       -4.9391572314
 C         1.9278988838        0.3783330561      -12.7862126793
 C         0.1919142389       -1.4525185304      -12.1857933833
 C         6.5918487978       -4.8034545023      -14.5303486386
 C         7.1972194478       -2.9907104264      -16.2286997566
 C         4.6147788002       -4.4813946506      -21.3872177094
 C         6.8825400446       -3.4469945736      -21.8352022109
 C         5.7386370615        3.3071055236      -18.1922954570
 C         4.5184503784        3.2919908556      -20.4232558703
 H         6.9230505104        4.4958492759      -20.0492872941
 H         7.5192258242        3.8268562401      -21.6688683498
 H         8.6092583311        3.6116896646      -20.1346244108
 H         4.4507952729        0.8774641168      -21.2185081594
 H         3.5521758203       -0.2722315123      -20.2353927315
 H         6.4826573497       -0.7650739868      -20.1135811649
 H         5.8152130570       -0.8791522682      -21.8475352641
 H         6.6511726270       -6.2008310961      -19.4302095910
 H         4.8988169958       -5.8011782190      -19.3651989092
 H         7.0837597820       -5.7107668692      -17.1954481204
 H         5.3549540686       -6.4843479444      -17.2806445271
 H         6.2566614800       -2.1950630044      -12.9295617020
 H         5.1589621668       -3.3364784744      -12.5107686215
 H         4.2719946662       -0.6893393400      -13.5369538021
 H         4.6635680465       -1.0166156405      -11.7506598108
 H         1.2416460376       -2.5820405903       -9.7078409041
 H         0.3215893874       -1.2178309921       -9.2935577467
 H         1.7833956654       -0.3213819499       -7.6019252633
 H         2.9076338889       -1.6239630268       -7.8873796059
 H        -0.0257481434        0.6272406881       -3.6229133098
 H        -0.9581604093       -0.9129774027       -3.4841006971
 H        -1.6399688341        1.6327752747       -5.0038987656
 H        -2.4306888174        1.3405405524       -3.5535089909
 H        -5.3038853171       -2.5662879084       -6.7275034048
 H        -3.9987734273       -1.6998030065       -7.5945635722
 H        -6.9135222700       -1.1398327372       -8.0525837565
 H        -6.1715814423       -2.6036682208       -8.7696835172
 H        -6.6324187506       -4.1035584629      -11.3559322434
 H        -6.1997113372       -3.2046228073      -12.8346228596
 H        -8.4593733853       -4.3337118191      -13.3813280990
 H        -9.0597575828       -3.0259619164      -12.7609501399
 H       -11.1554821510       -4.3157886936       -8.0391623825
 H        -9.7501531027       -3.7788645831       -8.7490359251
 H        -8.6618762032       -6.1356606993       -7.9783325704
 H       -10.0611672922       -6.0596864607       -6.8646357129
 H        -8.5490367856       -5.3805016670       -2.4360393613
 H       -10.1995720771       -4.9970053148       -3.1672643815
 H        -9.4022513403       -2.5021219938       -2.1408048690
 H        -8.8280746645       -3.6947422554       -0.8611897388
 H       -13.2853655128       -1.9557762714       -2.8613040986
 H       -11.6311516325       -2.3134245366       -3.3935935405
 H       -12.2932379171        0.6049677309       -2.8454300280
 H       -13.1704165723       -0.0474910849       -4.2332167508
 H       -12.0999231332        2.3485021786       -7.1086505392
 H       -11.8198676656        0.9121291601       -8.1307230580
 H       -11.1991098734        3.1319738733       -9.3967676023
 H        -9.9468986681        1.8882530659       -9.1641474836
 H        -6.0395750945        4.8869538106       -9.7816094521
 H        -6.1233678906        3.1418864851      -10.2527077198
 H        -6.3084038832        3.4862483754       -8.6346816289
 H       -11.1660769911        5.6773268701       -9.0958676846
 H       -10.6030445212        5.1269556621      -10.6676312390
 H        -9.9170397723        6.5301889216      -10.0556286824
 H        -8.9650356054        6.6393161228       -7.8807593384
 H        -7.6392728532        6.5106216196       -8.8946083927
 H        -7.7114158903        5.5248682901       -7.3434783431
 H       -11.1220252946        3.2711026220       -5.1021132288
 H       -11.5594818239        2.4762378081       -3.5842616100
 H       -12.6126134993        2.2700878077       -5.0998880344
 H        -8.7972606340        2.4448771830       -4.7890527444
 H        -8.4954522314        0.7244659241       -4.6032595014
 H        -9.2717046320        1.6760989213       -3.3296903508
 H       -13.2575513281       -1.9096570178        0.5561158357
 H       -13.1214900826       -3.6674583183        0.4695484308
 H       -13.5036709076       -2.8379826678       -0.8942544333
 H       -11.2251929267       -2.0791542227        1.7121124780
 H       -10.3273868232       -0.9874764174        0.7161369270
 H        -9.7991355978       -2.5632111553        0.8381115335
 H        -7.9511064507       -6.9734293835       -5.5789003119
 H        -9.5536060512       -6.5638370121       -5.0456877227
 H        -8.0405352734       -6.6951325569       -3.8925393712
 H        -6.2872530215       -5.1634698148       -4.4431759720
 H        -6.2423726523       -3.8814296078       -5.5916714981
 H        -6.2235229576       -5.5847461196       -6.1837279782
 H       -11.3067022009       -3.0508323305      -10.6017320107
 H       -12.4815186962       -4.2475462116      -11.1960289833
 H       -11.4286532143       -3.1916859283      -12.2829316469
 H       -10.6523946308       -7.0858426947      -11.8550302542
 H       -10.5141303132       -6.0734084389      -13.2393695191
 H       -11.9641715721       -6.1343795336      -12.2386615882
 H        -5.0623099214       -0.6991164461      -13.1562820844
 H        -4.1560584773        0.2824768883      -12.0225672313
 H        -5.8301804298        0.4636819115      -12.2883398856
 H        -3.5350609061       -1.8320781820      -10.3522690867
 H        -4.0649953070       -2.7286921330      -11.7980371873
 H        -4.8057458872       -3.1454490615      -10.2110012345
 H        -3.7816087604        2.7584395971       -5.1958758160
 H        -4.9590484148        1.8755173587       -4.3033102926
 H        -5.3722324883        2.5434159990       -5.9110679872
 H        -2.5667588427        1.7038210655       -7.2587152016
 H        -4.2353808909        1.6307547111       -7.8184372224
 H        -3.1110098958        0.2968024306       -8.0370870347
 H         0.8766714960       -2.3696054819       -3.2301181860
 H         1.0646497503       -3.7165381699       -4.4100944966
 H        -0.5364308749       -2.9275652529       -4.0419500834
 H         2.9582964958       -1.7009427961       -5.2651163669
 H         2.3371780358       -0.7384052588       -3.8617596221
 H         2.5984472714       -0.1525734732       -5.4620176326
 H         2.9652741040        0.7445014895      -12.7848804728
 H         1.3245529828        1.3086079378      -12.3836952390
 H         1.6797860848        0.2194028388      -13.8417624236
 H         0.0182732970       -2.4262861185      -11.7492121429
 H        -0.1707901919       -1.4587018951      -13.2294216931
 H        -0.4318517851       -0.6748098593      -11.7678328459
 H         5.9934048693       -4.8455377579      -13.6597624206
 H         7.4701668698       -4.4265762612      -14.0835538700
 H         6.8674110549       -5.7878006287      -14.9920077025
 H         7.6856423101       -3.6742532140      -16.8529377735
 H         7.7566143618       -2.4741393941      -15.4998109357
 H         6.7941848394       -2.2005832902      -16.8924947523
 H         3.8285447236       -4.5141147116      -20.6634572485
 H         5.0177003081       -5.3264184979      -21.8004270406
 H         4.0947153239       -3.9118002607      -22.2078287067
 H         7.7284074944       -2.8514369578      -21.5211850592
 H         6.4337237765       -2.8906668411      -22.7361272788
 H         7.3121802755       -4.3058711779      -22.1733970602
 H         6.0778860009        4.3666926156      -18.2086199061
 H         6.6223740971        2.8915165874      -17.7362463734
 H         4.8431161505        3.0908650315      -17.6244905392
 H         4.9019197981        4.2718050254      -20.4124783831
 H         3.6291766998        3.3124327973      -19.8409606429
 H         4.4816130511        2.9786012885      -21.3914398023
 Na       -8.3243337011       -1.3208868205       -6.0042229425
 Na        4.3418472681       -1.6079285778      -17.6773518185
