232

 C       -22.6060994013       -6.8847879765       -2.8205808902
 C       -21.3332658108       -5.9895770610       -3.0521465640
 O       -20.3796228422       -6.2768346518       -2.3714508917
 C       -21.5089237075       -4.6617482207       -4.0183198653
 C       -20.2081703465       -3.8731732809       -4.0007297919
 O       -19.7200327934       -3.6596849166       -2.9088748159
 C       -19.4298639932       -3.3172270066       -5.2389809175
 C       -18.0176089459       -2.6500248274       -4.9639499928
 C       -17.2046041171       -3.3684329017       -3.8411265470
 O       -17.1045645163       -4.5693978414       -3.8531666516
 C       -16.6384005867       -2.6239120478       -2.5875925994
 C       -16.2044468544       -3.7559981472       -1.5744459968
 O       -17.1152090799       -4.2536550294       -0.9750095285
 C       -14.7704029715       -4.3257382188       -1.4071993313
 C       -14.8179628681       -5.7695018862       -0.8806569493
 C       -15.2782776344       -6.9548529185       -1.8374723291
 O       -16.4453439980       -7.0674191680       -2.1728943810
 C       -14.2641232666       -8.0319894746       -2.1966787422
 C       -12.8841114198       -7.2675757241       -2.6844320105
 O       -12.9898650165       -6.1228370874       -3.1489087749
 C       -11.5102001622       -7.8139011870       -2.3796893856
 C       -11.1594917389       -9.3236034231       -2.9561434369
 C        -9.9574663085       -9.8623530271       -2.0645434196
 O       -10.2041195634      -10.3856392971       -1.0018456438
 C        -8.5036481459       -9.9691024035       -2.7459021261
 C        -8.0045459009       -8.6466627114       -3.3747886798
 O        -8.6262286816       -7.5914869086       -3.2729100840
 C        -6.6649980539       -8.7391880795       -4.0714365384
 C        -6.1697849337       -7.4072506860       -4.6725089827
 C        -6.2994313031       -7.2165357396       -6.1755666693
 O        -6.7263617231       -8.0825252384       -6.9381599839
 C        -5.8126034498       -5.8151800345       -6.6511077613
 C        -4.4543695662       -6.2652851763       -7.5145959898
 O        -3.4078343053       -6.4682272999       -6.9706550562
 C        -4.4960827147       -6.3870882121       -9.0622700284
 C        -4.4436361777       -5.0139223830       -9.7139402232
 C        -4.3678372829       -5.1538246715      -11.2415547347
 O        -3.6107753553       -5.9923764034      -11.6303429434
 C        -5.0548370587       -4.1534128824      -12.2230284244
 C        -4.4000043827       -2.8625323205      -11.8673131066
 O        -4.5429710567       -2.2398191731      -10.8390797173
 C        -3.3197691438       -2.3351147730      -12.8041235263
 C        -2.3854482712       -1.2706106382      -12.1767828640
 C        -0.9316657235       -1.2779927167      -12.7213843358
 O        -0.4596667817       -0.2915202724      -13.2842321028
 C        -0.1294585335       -2.4654895344      -12.3084412111
 C         1.3652231331       -2.0187774021      -12.0690595314
 O         2.2588424216       -2.7069630061      -12.5369384550
 C         1.6811826417       -0.7176337877      -11.3290093550
 C         3.0940906837       -0.2616712212      -11.9490140522
 C         3.7311522374        0.8010882062      -11.0952581602
 O         3.0840531927        1.3381783165      -10.2192344017
 C         5.2435477014        1.0723929323      -11.3696097288
 C         5.3475687474        2.2767275771      -12.3624826701
 O         6.0300833017        2.2605274328      -13.3796785714
 C         4.5302741585        3.4809816543      -12.1033690498
 C         5.3407818997        4.7451513555      -11.5175563707
 C         5.8888280108        5.6707674267      -12.6948429338
 O         5.5985558603        5.4554610209      -13.8578371273
 C         6.8037522511        6.9428049044      -12.4216028910
 C         7.2919097355        7.2443382860      -13.9699128258
 O         6.8165579979        8.2000574710      -14.5734542401
 C         8.2909889277        6.3168129404      -14.6174809682
 C         8.5504801746        6.5433314409      -16.1054275297
 C         7.4405472127        5.9740613691      -17.0630527781
 O         7.0248307318        4.8351643359      -17.0276270967
 C         6.8763560997        6.8574272675      -18.2685806199
 C         8.1017893065        6.7373265396      -19.2853262709
 O         9.2126711314        7.1066072217      -18.9047307222
 C         7.8062307396        5.9184804164      -20.5298843767
 C         9.0933919307        4.9532196809      -20.8412161928
 C         9.2367876666        3.8879446106      -19.7061776013
 O         9.1407764047        4.2419582116      -18.5867649450
 C         9.7704643683        2.4015342070      -20.2498865797
 C         9.0676741850        1.3615266251      -19.3677441080
 O         8.3467307585        0.5199727588      -19.8843879270
 C         9.4440655032        1.3049817560      -17.9249197212
 C         8.4532591554        0.3942957499      -17.1012524943
 C         7.2549365858        1.2470016444      -16.6592815198
 O         7.4142884251        2.2265831415      -15.9760751910
 C         5.7875693493        0.7098452369      -16.9468892435
 C         5.0937478419        1.8665217301      -17.6726981658
 O         4.4531594526        2.7576987487      -17.1342870461
 C         5.2973005258        1.9772135058      -19.1846940214
 C         5.6978673906       -0.5273652730      -17.9872364921
 C         5.1093146331        0.3000548696      -15.6414635207
 C         9.5808871315        2.2016984509      -21.7390827358
 C        11.2939431542        2.3658917311      -19.8976473101
 C         5.4961955911        6.3112911579      -18.7896872605
 C         6.7997643905        8.3611596500      -17.9367445702
 C         5.9204434380        8.0700541674      -11.8884764591
 C         7.8714852471        6.4798932508      -11.5094240612
 C         5.8390244147        1.7026398910       -9.9930013338
 C         6.1037958250       -0.0977940558      -11.9002360652
 C        -0.6271504399       -2.9192426145      -10.8726821543
 C        -0.1355559121       -3.7199378743      -13.2359916244
 C        -4.9153255573       -4.6344853313      -13.7339367806
 C        -6.6026377612       -4.1612678470      -11.8739915104
 C        -6.8846754576       -5.2116714732       -7.5483248669
 C        -5.2701735289       -4.8405752428       -5.6670756241
 C        -7.5367942351      -10.4689073252       -1.5917814844
 C        -8.7067414548      -11.0307092738       -3.7744560513
 C       -13.9802652858       -8.9478861041       -0.9208825542
 C       -14.8087745946       -8.9262675394       -3.3500707062
 C       -15.4285187459       -1.7312057071       -3.0107958615
 C       -17.7229116301       -1.7622336943       -1.8912337476
 C       -21.9869721633       -5.2204787420       -5.4269790008
 C       -22.7015062730       -3.7797879845       -3.4313766046
 H       -22.5065925714       -7.3424200592       -1.8129000423
 H       -22.4936942978       -7.6247381595       -3.5434576675
 H       -23.5301161579       -6.3639060765       -3.0546762809
 H       -20.0455738577       -2.6020386626       -5.7685361127
 H       -19.1760475703       -4.1607190895       -5.8923711638
 H       -18.0828814589       -1.6358123900       -4.6040183815
 H       -17.4641435033       -2.6471433820       -5.8905210983
 H       -14.2062605275       -3.6202926956       -0.8112476921
 H       -14.2745367154       -4.2580749459       -2.4154950129
 H       -15.4197602757       -5.7754053348        0.0118868506
 H       -13.7499501118       -5.9810517262       -0.5143251148
 H       -11.3423560636       -7.9207798683       -1.3676083841
 H       -10.7632636395       -7.1370775663       -2.7738261018
 H       -10.8234043204       -9.1396850516       -4.0014343652
 H       -11.9823502213       -9.9652573223       -2.8636997454
 H        -6.6940898851       -9.4541641611       -4.9692992171
 H        -5.9174416038       -9.1686561659       -3.3777196238
 H        -5.0591968171       -7.3323188299       -4.5613764782
 H        -6.6021528661       -6.5936070730       -4.0759891965
 H        -5.5033057594       -6.8552569560       -9.4424268664
 H        -3.5923614817       -6.8434269840       -9.4412172408
 H        -3.5105083403       -4.5280808109       -9.2673103873
 H        -5.3046087961       -4.4545651777       -9.3936623115
 H        -3.8849410838       -1.9849091828      -13.6950920838
 H        -2.6397804932       -3.2935697418      -13.0373079300
 H        -2.3032997764       -1.2789153609      -11.0776526192
 H        -2.6697882817       -0.1753099210      -12.3248914498
 H         1.7133945594       -0.7838589510      -10.2422408907
 H         0.8179857978       -0.0132775575      -11.5099299156
 H         3.1926302026        0.1577377613      -12.9133874123
 H         3.7277679416       -1.1207133388      -12.0311872345
 H         3.5041334817        3.4228240110      -11.5838362265
 H         4.1910258619        3.8408565044      -13.1375192399
 H         6.1779699156        4.2413324821      -10.9592141367
 H         4.8177378914        5.3812434856      -10.7937928852
 H         7.9443152007        5.3110860839      -14.4367946464
 H         9.2454596624        6.4439135873      -14.1081405851
 H         9.4685640797        5.9397856044      -16.4520228567
 H         8.6040344133        7.6347117061      -16.3937811372
 H         7.5571092600        6.6027344280      -21.3464513673
 H         6.8987567990        5.2643841557      -20.4067863674
 H         9.9738953393        5.4799134695      -20.7169584020
 H         8.9659395519        4.6820324621      -21.9136939989
 H         9.5077242059        2.2383625435      -17.3686799206
 H        10.4229580626        0.8741824962      -18.0188590374
 H         9.0890908227        0.0332452873      -16.2659181504
 H         8.3183609021       -0.5370937061      -17.6978887974
 H         6.3988692733        2.0994106507      -19.4752499258
 H         4.6660953729        2.8145886400      -19.3884507452
 H         4.8951374538        1.0882722424      -19.7867638436
 H         4.6737574364       -0.5630984189      -18.2036668363
 H         5.9440894929       -1.4980896808      -17.5359210774
 H         6.3407465319       -0.4615854367      -18.8238875743
 H         4.1552519588       -0.2711212713      -15.7676411549
 H         5.0981992327        1.1127256972      -14.9637399565
 H         5.7065572459       -0.5576228667      -15.3736731521
 H         9.9295256937        1.1412931294      -21.9427420244
 H        10.1448482007        2.9357849968      -22.3222449384
 H         8.5004815649        2.2430941187      -22.0306507757
 H        11.7185170344        1.3975966125      -19.9787007589
 H        11.4868092161        2.7167240695      -18.8816551482
 H        11.8190932868        2.9496204529      -20.6193703078
 H         4.7305400368        6.3388620759      -17.9989441496
 H         5.4531197435        5.3340112702      -19.2492537848
 H         5.1263890567        7.0105555677      -19.4836381750
 H         7.7099198106        8.8342988184      -17.7882174442
 H         6.1650859128        8.6096564400      -17.0419833358
 H         6.3254050748        8.9479995900      -18.7423621714
 H         6.6376754548        8.9218213084      -11.6533791475
 H         5.4862579423        7.7967933209      -10.9518205963
 H         5.0673062384        8.2609679630      -12.5326326297
 H         7.5342281329        6.1254038911      -10.5126462204
 H         8.5453446849        7.2732032643      -11.4219839516
 H         8.4443121112        5.6314789680      -11.9104153394
 H         6.8327947100        2.0946554630      -10.1392877636
 H         5.9945067595        1.0114709638       -9.1410283050
 H         5.1334246755        2.3896906684       -9.5707123679
 H         6.4358630483       -0.8307476466      -11.1419483617
 H         6.9531816229        0.1514875048      -12.5117853744
 H         5.4244258804       -0.6110144915      -12.5314977797
 H        -0.3222926169       -2.2253966797      -10.1028392426
 H        -0.1733607649       -3.8846516373      -10.5792432713
 H        -1.6878220631       -3.1986968788      -10.8080945248
 H        -1.0408252710       -4.2404979384      -13.1732441731
 H         0.5777305197       -4.3897106629      -12.8745804423
 H         0.0359220730       -3.4957652572      -14.2855152755
 H        -5.6350264673       -4.0149552933      -14.3095695054
 H        -5.1373252973       -5.6989990398      -13.8765540391
 H        -3.9021692639       -4.3608982662      -14.1596981519
 H        -7.1659444274       -3.2917643404      -12.2977011444
 H        -6.7481301003       -4.2088656349      -10.7636601147
 H        -7.1202967166       -5.0774884907      -12.1998168937
 H        -7.2888225730       -6.0260532249       -8.2590518567
 H        -6.4843876096       -4.3849064824       -8.0842060543
 H        -7.7565464427       -4.6546995754       -7.0932105643
 H        -6.0973553194       -4.5545108657       -5.0127003371
 H        -4.9558223486       -3.9335029129       -6.1276658200
 H        -4.4556629362       -5.1648449063       -4.9903479536
 H        -7.7281311633      -11.4650580217       -1.4361340777
 H        -7.6463904655       -9.7436525811       -0.8091547492
 H        -6.4921280999      -10.3540857509       -1.9155909289
 H        -8.6106064082      -11.9589611583       -3.1769406234
 H        -7.9270993055      -11.0532602085       -4.5413941641
 H        -9.6472735054      -10.8840208771       -4.2930363772
 H       -14.4692704768       -8.5419178805       -0.0356871785
 H       -12.8765728801       -8.8597325531       -0.7184271747
 H       -14.2974905819       -9.9398577359       -1.0877546910
 H       -14.7493084484       -8.2996345403       -4.2108627533
 H       -15.8384858636       -9.0416998055       -3.1276871855
 H       -14.2967003424       -9.8414901893       -3.4041791831
 H       -14.5909491856       -2.3557666157       -3.4262320409
 H       -14.9236262006       -1.1339230237       -2.3060503318
 H       -15.6872074386       -1.0950715482       -3.7855692492
 H       -18.5096014756       -2.5506374010       -1.6212546311
 H       -18.1804669701       -1.0069618059       -2.5293658021
 H       -17.3199615104       -1.2314021036       -1.0916640464
 H       -21.4149290742       -6.1171698106       -5.7195152083
 H       -21.9517120685       -4.4113455959       -6.1113882880
 H       -23.0504805034       -5.5185936693       -5.3282481337
 H       -22.6294489393       -2.7177509484       -3.7916054911
 H       -22.7093238586       -3.8308435637       -2.3685672318
 H       -23.5714798666       -4.2755038090       -3.7249115328
 Na      -18.3219352321       -5.6999225880       -2.1573596036
 Na        5.6730298151        3.8575967429      -15.2665639747
