232

 C         7.5435189745        3.6614399291      -20.3933881318
 C         6.9007725000        2.3250798787      -20.2708166650
 O         7.3075121862        1.2730850602      -20.6535939306
 C         5.4170794728        2.4401317573      -19.4277323247
 C         4.8578169684        1.0474862074      -19.1162205475
 O         4.8519062367        0.5709025898      -17.9691591250
 C         4.5845679636        0.2949353495      -20.4290657033
 C         5.4665462489       -0.9389690214      -20.7713167671
 C         4.9054184799       -2.2733484010      -20.4261010049
 O         3.8392386064       -2.3886055626      -19.8919371236
 C         5.6367481282       -3.5043212663      -20.9162959922
 C         6.3095109441       -4.0560013667      -19.5239014868
 O         7.0585508553       -3.3228104068      -18.9153206300
 C         6.0835413352       -5.5371521219      -19.0815395794
 C         5.9639609606       -5.5619763655      -17.5541801137
 C         5.2500975144       -4.3594143780      -16.8438190271
 O         4.1289568511       -3.8948273705      -17.1654165533
 C         6.0721555519       -3.6915137911      -15.5684630868
 C         5.2278584750       -2.6294715983      -14.8030348671
 O         4.7324476659       -1.7449101339      -15.4508785670
 C         5.2959456161       -2.5477956162      -13.2927624509
 C         4.2915274296       -1.4572847902      -12.7247619666
 C         2.8776261301       -2.0197553044      -12.3826195593
 O         2.6736820167       -3.2048300826      -12.4897319704
 C         1.7261136694       -1.0092854819      -11.9909310867
 C         2.0785237311       -0.7621629604      -10.4102347736
 O         3.0809214242       -0.2220720892      -10.1196954376
 C         1.2104212767       -1.5377583720       -9.3770529919
 C         1.8924752223       -1.5147965176       -7.9488995694
 C         1.0671612630       -2.2345225242       -6.8660122516
 O         0.4467453184       -3.1944286758       -7.2143540274
 C         0.9778551644       -1.6806793597       -5.3678713266
 C        -0.1524738956       -0.5483179197       -5.5002518583
 O        -0.4734541249       -0.1346404968       -6.5818684525
 C        -0.8688982286       -0.0515592302       -4.1838171333
 C        -2.1124913925        0.9032963154       -4.4391960107
 C        -3.2538437932        0.0560931942       -4.9725119097
 O        -3.5589587554       -1.0304871828       -4.6143499438
 C        -4.1483811994        0.7886743572       -6.1373400834
 C        -5.2420912088       -0.2189831692       -6.4046038570
 O        -6.3711992831       -0.0653586053       -6.0227244169
 C        -5.0224048652       -1.4438286498       -7.2459954545
 C        -6.0039449108       -1.3733496553       -8.4657703684
 C        -5.5660580625       -0.4946398269       -9.5554229618
 O        -5.3805870427        0.7305227637       -9.4845434715
 C        -5.5112260078       -1.3168255807      -11.0015171925
 C        -6.9500215905       -1.9167519579      -11.3227334505
 O        -7.8983991942       -1.2801085985      -10.9114202251
 C        -7.1372227047       -3.2251050784      -12.1804413160
 C        -8.5263488594       -3.7718725455      -12.5552645882
 C        -9.0639998728       -4.6998742544      -11.3360031542
 O        -8.2313987260       -5.0925516286      -10.5427856786
 C       -10.6111723760       -5.0822561856      -11.1401656244
 C       -10.5909726523       -5.7090893716       -9.7039612451
 O       -10.6823056342       -6.8921528265       -9.5030248869
 C       -10.3407494434       -4.8118802585       -8.4660566586
 C        -9.4298363908       -5.5462865008       -7.3938740949
 C        -8.6855796862       -4.4797524393       -6.4741491370
 O        -8.4163266848       -3.4077926643       -6.9266682516
 C        -8.0905565565       -4.9316907945       -5.1511600845
 C        -8.4955047380       -3.9744166289       -3.9469206208
 O        -8.0657304737       -2.8147538444       -4.0098103727
 C        -9.2144992739       -4.5837492841       -2.8031457001
 C        -9.4893391631       -3.6305753352       -1.6396593083
 C       -10.8874425367       -3.7664976041       -1.0745516408
 O       -11.6524557825       -4.6617985540       -1.3268598797
 C       -11.5001156217       -2.4491372316       -0.4208809389
 C       -11.3922692649       -1.3944612565       -1.5615170662
 O       -10.6846505535       -0.4307068105       -1.4456384405
 C       -12.4113442214       -1.5434208977       -2.7696480772
 C       -12.2904345404       -0.2329447157       -3.5676378339
 C       -11.0277319051       -0.1804569684       -4.4634273518
 O       -10.4624217175       -1.1662740884       -4.7273550039
 C       -10.5383073107        1.2794703658       -5.0697356227
 C       -10.3284346180        1.1086611925       -6.6194193785
 O        -9.2417627398        0.5921710881       -7.0013108842
 C       -11.2647757968        1.8036175379       -7.6645522706
 C       -10.5221919793        2.6299313589       -8.7348201725
 C        -9.5002155861        3.5667596693       -8.1203322247
 O        -9.1170558334        3.4071969201       -6.9389458090
 C        -9.0239322574        4.8228467211       -8.9819840336
 C        -8.0128817661        4.1535327921      -10.1100678422
 O        -8.4844525014        3.7090075886      -11.1029450123
 C        -6.6629966254        3.9350764009       -9.5648352621
 C       -10.2697724830        5.4496042774       -9.6701180140
 C        -8.2507963367        5.9820795566       -8.2817827527
 C       -11.5682141841        2.4350379571       -4.6414752697
 C        -9.1445418394        1.6142195649       -4.4779749685
 C       -13.0346514806       -2.6514744096        0.0203782473
 C       -10.6387533066       -1.9751537598        0.7956106211
 C        -8.5396947878       -6.4316239110       -4.7254425612
 C        -6.5435896387       -5.0477548030       -5.3545664716
 C       -11.5265970548       -3.9301959104      -11.3355636038
 C       -10.6807011432       -6.1477306215      -12.2490477142
 C        -5.0021551693       -0.2818025483      -12.0740215398
 C        -4.3325783607       -2.4052015020      -10.9393492589
 C        -4.8615744244        2.0408384206       -5.5424979530
 C        -3.4586280333        1.2788530940       -7.4711233686
 C         0.6430634291       -2.7772210427       -4.4197665441
 C         2.2933027340       -0.9133466228       -4.8861443061
 C         1.9099691969        0.2406985102      -12.8609879833
 C         0.3319599497       -1.5231564687      -12.2263865998
 C         6.7263442210       -4.8345893950      -14.7016891463
 C         7.1112938817       -2.8778371193      -16.2504355332
 C         4.6085085118       -4.4665201204      -21.6027921078
 C         6.8603681589       -3.3254724287      -21.8509941340
 C         5.6582589676        3.2162091561      -18.0897524006
 C         4.4432718234        3.2278424899      -20.3534677112
 H         6.9032386973        4.4626673330      -20.1369997064
 H         7.6136521470        3.7074346621      -21.4604016095
 H         8.5776663575        3.6783517150      -19.9122578671
 H         4.5930327571        0.9256024764      -21.3247455433
 H         3.5185717920        0.0310673122      -20.3142148437
 H         6.3864436677       -0.8453412035      -20.2675534849
 H         5.6026766680       -0.9620931305      -21.8842180619
 H         6.9284061406       -6.1744491399      -19.3609278614
 H         5.1242371192       -5.8294975522      -19.5564199904
 H         6.8966283662       -5.5443299278      -17.2654358105
 H         5.4006579749       -6.5036101454      -17.2502576429
 H         6.3186626782       -2.4215082949      -12.8849894118
 H         5.0155903798       -3.4495374954      -12.7140051859
 H         4.0969157251       -0.7214461314      -13.5391500627
 H         4.6313960103       -1.0129816832      -11.7546700260
 H         1.0748940971       -2.5273157392       -9.7598028061
 H         0.1718802912       -1.1352690861       -9.2973990944
 H         2.2659969029       -0.5868174580       -7.6315548990
 H         2.7542884927       -2.1646283870       -8.1480998883
 H        -0.1151066071        0.6146059218       -3.6334741395
 H        -1.1570624164       -0.8745831582       -3.4833172855
 H        -1.7118716784        1.7388203931       -5.1186471829
 H        -2.4505873430        1.4455402106       -3.5753936698
 H        -5.4856764800       -2.1990757023       -6.5900923087
 H        -4.0114903711       -1.7741528734       -7.5698596073
 H        -6.9974183745       -1.0358435299       -8.0501855535
 H        -6.0077586234       -2.4971649949       -8.8113710915
 H        -6.6969331042       -4.0330059619      -11.6131427852
 H        -6.4591918793       -3.1078131572      -13.0506529691
 H        -8.3602569062       -4.4042705947      -13.4028740407
 H        -9.2561507778       -3.1079273123      -13.0081650746
 H       -11.2847471860       -4.5125749908       -8.0273428759
 H        -9.8859368939       -3.8486626399       -8.7567647137
 H        -8.6643882422       -6.0944674713       -7.9376524392
 H       -10.0568855069       -6.2737622854       -6.9143111008
 H        -8.5210198083       -5.4367903382       -2.4276983573
 H       -10.2045318005       -4.9519230961       -3.0800329869
 H        -9.2788294340       -2.5934966731       -2.0255539650
 H        -8.7103734301       -3.8782123169       -0.8092902651
 H       -13.4248769631       -1.5631938727       -2.4496952719
 H       -12.2943194749       -2.4960767520       -3.2675976185
 H       -12.2357584785        0.5983623559       -2.7519647058
 H       -13.2313795356        0.0622729310       -4.1261728281
 H       -11.9059369985        2.4483316892       -7.0595984856
 H       -11.9272007971        1.0837628963       -8.1085965409
 H       -11.1279352425        3.3117744303       -9.3094441048
 H       -10.0726135960        1.9687331773       -9.3908325138
 H        -5.9170797034        4.7327728040       -9.7758773914
 H        -6.3077589048        2.9454446294       -9.8910806041
 H        -6.7215431465        3.7399543695       -8.5071978710
 H       -11.0759910532        5.5392470111       -9.0757786167
 H       -10.5651768447        4.8184537690      -10.5281875662
 H       -10.0243474879        6.3794749600      -10.1489818400
 H        -8.9353151165        6.4374509910       -7.5254677568
 H        -8.0228816138        6.9020248757       -8.8440548021
 H        -7.4000622873        5.6235450441       -7.6839451164
 H       -11.2786770416        3.3939439039       -4.9951771782
 H       -11.5259823565        2.5595327136       -3.5688012705
 H       -12.6218664030        2.2830004443       -4.9768231408
 H        -8.6557669371        2.5333564205       -4.8087213329
 H        -8.4917157954        0.7874476800       -4.6225635880
 H        -9.2369983151        1.7490033443       -3.3579968493
 H       -13.2579686079       -1.7595392189        0.5766124685
 H       -13.1556111737       -3.5260105946        0.5987587990
 H       -13.5890115065       -2.8124379390       -0.8858397172
 H       -11.2964003795       -2.1611833907        1.6562671279
 H       -10.4050634768       -0.9251793110        0.8940487603
 H        -9.6332916305       -2.4317524978        0.9254675050
 H        -8.3355034073       -7.2058130376       -5.4512975149
 H        -9.6019073571       -6.2846875203       -4.4743331543
 H        -7.8856361347       -6.5466905528       -3.9412546729
 H        -6.1016281854       -5.3225560111       -4.4156221954
 H        -6.1686599983       -4.1582025457       -5.7793587807
 H        -6.4507923252       -5.8644143808       -6.0820232276
 H       -11.6012252131       -3.1836410762      -10.5373956822
 H       -12.5114358318       -4.3749394939      -11.4893074553
 H       -11.2187728206       -3.3235683281      -12.1551037898
 H       -10.1272331075       -6.9759696055      -11.8916072552
 H       -10.1487557680       -5.8279041819      -13.1137632126
 H       -11.6833351157       -6.4503696348      -12.4760768374
 H        -4.8410389197       -0.7435285539      -13.0615891364
 H        -4.1205120550        0.2413084533      -11.7675470192
 H        -5.6940357514        0.4715451542      -12.3788291849
 H        -3.4433259515       -1.8188393536      -10.6027428976
 H        -4.1221991388       -2.5751517579      -12.0003518606
 H        -4.5368071071       -3.2753117038      -10.3095065989
 H        -4.1097266936        2.7792808312       -5.4010289754
 H        -5.3071672783        1.9490534533       -4.5604047841
 H        -5.6071698991        2.4486704778       -6.2036662420
 H        -2.6250817490        2.0041117424       -7.2342285170
 H        -4.2359808502        1.8036310941       -8.0295574074
 H        -2.9493655308        0.5657544623       -8.0326628385
 H         0.9702580366       -2.4980763250       -3.3487179952
 H         1.0892607045       -3.7040618459       -4.6805087814
 H        -0.4855606561       -2.9634518333       -4.2511846258
 H         3.0317669927       -1.6542466030       -4.5669006682
 H         1.9309859633       -0.2238378942       -4.1437858040
 H         2.7918894478       -0.3569177468       -5.7215111101
 H         2.8305206937        0.8521774021      -12.7776689077
 H         1.1135068448        1.0317238568      -12.5996132395
 H         1.7654720146       -0.0627149957      -13.8965863788
 H         0.0812771195       -2.2899732652      -11.4919395585
 H         0.0497554435       -1.9177375387      -13.2129697642
 H        -0.2746879214       -0.6419024503      -12.1541989410
 H         6.3359804260       -4.8522178362      -13.7562612362
 H         7.7072915802       -4.5569142066      -14.4487310595
 H         6.8429184468       -5.7958431377      -15.2019079471
 H         7.7432747871       -3.4029609760      -16.9119157913
 H         7.5966277565       -2.2147274770      -15.4867117032
 H         6.5690762089       -2.1663465608      -16.8265119112
 H         3.7973256586       -4.6760491046      -20.9677880302
 H         5.2207487770       -5.2772561021      -22.0656472215
 H         4.1165725204       -3.9288384037      -22.4802374992
 H         7.6300013451       -2.6139846433      -21.5806880537
 H         6.3908446685       -2.9292546937      -22.7126429133
 H         7.4591747207       -4.1605409105      -22.2307393150
 H         6.1364910498        4.1610257364      -18.4762373233
 H         6.5161970380        2.9098753527      -17.4637547076
 H         4.7359914920        3.4242791530      -17.4970542252
 H         5.0545385271        4.1308210473      -20.6313634025
 H         3.5372261999        3.5369719028      -19.8396793713
 H         4.3318048164        2.6436399131      -21.2636733728
 Na       -8.3315960296       -1.2359401667       -5.9126876664
 Na        4.3511101759       -1.4248741741      -17.7234189582
