232

 C         7.6845758858        3.6494731100      -20.3884054370
 C         6.7883471881        2.4321454327      -20.1382528046
 O         7.1122110992        1.3378264722      -20.5829993775
 C         5.4592646557        2.4879757072      -19.3734543859
 C         4.9202713853        0.9934771001      -19.2000753335
 O         4.7662133308        0.5755344393      -18.0777939620
 C         4.4764064537        0.2293729093      -20.4476502381
 C         5.4491462702       -0.8949008802      -20.7922119093
 C         4.8040941552       -2.2580885036      -20.5274280011
 O         3.7694000264       -2.3328279363      -19.8571309560
 C         5.6096803939       -3.5806592271      -20.9880225604
 C         6.3439694140       -4.0379494437      -19.6543447443
 O         7.0672132703       -3.2246786145      -19.0917767540
 C         6.0543727042       -5.4042734857      -19.0313729043
 C         5.9630948791       -5.4976606912      -17.4649343205
 C         5.2819436255       -4.3264664586      -16.7818373719
 O         4.1785647869       -3.9059576512      -17.1496617237
 C         6.1075050066       -3.6305887118      -15.6588016144
 C         5.2069078838       -2.6156784175      -14.8273415113
 O         4.6250385112       -1.7758548385      -15.4987872190
 C         5.1853015922       -2.6204440460      -13.3632352411
 C         4.3002926009       -1.5217250566      -12.7378039273
 C         2.8710385067       -2.0753977491      -12.4072196183
 O         2.5870176952       -3.2905652440      -12.4041681459
 C         1.7968052179       -1.0397419237      -11.9562639313
 C         2.1121195042       -0.8104573848      -10.3825846966
 O         3.1269252488       -0.2096575533      -10.0497550706
 C         1.2057379915       -1.4839067652       -9.3507998942
 C         1.9899026423       -1.5439449979       -8.0624181849
 C         1.0522742736       -2.1952063344       -7.0127770397
 O         0.3792023771       -3.1540256662       -7.1593271342
 C         0.9340479405       -1.6368110255       -5.3944112992
 C        -0.2668825804       -0.6162980709       -5.5087001886
 O        -0.5549649000       -0.1544088538       -6.6310104404
 C        -0.8692192533       -0.0501667115       -4.2466215119
 C        -2.0218811836        0.8841685951       -4.5150562460
 C        -3.2599748501        0.2614466117       -5.0209806598
 O        -3.5340931877       -0.8714349801       -4.5863752699
 C        -4.2363512828        0.9406770303       -6.2015392026
 C        -5.3399618802       -0.1584465280       -6.4209937104
 O        -6.3900264081        0.0020955418       -5.8223998518
 C        -4.9879297747       -1.3667919381       -7.3043505781
 C        -6.0600890465       -1.4538748208       -8.4844010002
 C        -5.5998793155       -0.5980961055       -9.6530047760
 O        -5.2755805140        0.6084736920       -9.6388973243
 C        -5.5088426962       -1.3339542815      -11.0161616445
 C        -6.9696088476       -1.8775705242      -11.3946969935
 O        -7.9328559860       -1.2303841678      -10.9830216403
 C        -7.1076780908       -3.1278432018      -12.2866492804
 C        -8.4997755870       -3.7191321736      -12.3265492691
 C        -8.9366184568       -4.6479620112      -11.2270586011
 O        -8.0953255861       -5.3427339559      -10.6318823931
 C       -10.4262371112       -5.0981713845      -11.1479723788
 C       -10.6150233023       -5.8494910769       -9.7178186832
 O       -10.8293018299       -7.0379857773       -9.6118076553
 C       -10.4505874742       -4.8546178464       -8.4790284628
 C        -9.5071260685       -5.4622758309       -7.4387959143
 C        -8.6680939240       -4.5832606256       -6.5746639025
 O        -8.3403513314       -3.4501160355       -6.8742286508
 C        -8.0320243443       -5.2016249777       -5.0965278712
 C        -8.4476088291       -4.0438073390       -3.9507339690
 O        -8.2082608182       -2.8961991019       -4.1016332916
 C        -9.1935245292       -4.5610217382       -2.7107137942
 C        -9.4544704204       -3.5841365058       -1.4867397654
 C       -10.9109398629       -3.7039426606       -1.0504139477
 O       -11.5488164511       -4.7320910253       -1.2940510310
 C       -11.5015983837       -2.4107859549       -0.3772756846
 C       -11.4490842637       -1.2947946032       -1.4736401182
 O       -10.5893477040       -0.4348040735       -1.4940528846
 C       -12.4254121311       -1.3312783487       -2.6229418914
 C       -12.3258498861       -0.1231222370       -3.6394506806
 C       -10.9928001230       -0.1068163326       -4.4169916231
 O       -10.4505985418       -1.1831652990       -4.7126263022
 C       -10.4830422962        1.2544254893       -4.9374063280
 C       -10.1597936227        1.2850694413       -6.5043969731
 O        -9.2386902837        0.6333803121       -6.9318226679
 C       -11.1515874769        1.7930018933       -7.6070755660
 C       -10.4371234692        2.5696146746       -8.7037666672
 C        -9.4558979368        3.6284149716       -8.1401054320
 O        -8.9997262359        3.4248278090       -7.0422121195
 C        -9.0374870059        4.7992937641       -9.0380824797
 C        -7.9987946602        4.1299678611      -10.0840927607
 O        -8.3762438639        3.9032232010      -11.2441380332
 C        -6.6668548790        3.8852223221       -9.5545148856
 C       -10.2688045709        5.3383047827       -9.7168379691
 C        -8.3665791836        5.9107618199       -8.1452154137
 C       -11.4850006849        2.4167945063       -4.6616448746
 C        -9.1996320007        1.6296320289       -4.3456667915
 C       -12.9660658133       -2.6716743303        0.0923011755
 C       -10.5915210275       -1.9914379221        0.8082158436
 C        -8.6338751181       -6.5990389792       -4.7056665119
 C        -6.4813613205       -5.1191910458       -5.2846996776
 C       -11.5585038894       -4.0176062998      -11.3473592011
 C       -10.5929390691       -6.2523212621      -12.2181803548
 C        -5.0828064984       -0.2864337870      -12.0872322326
 C        -4.3942934774       -2.4050817518      -10.9149768554
 C        -5.0412843457        2.1227967126       -5.6067906111
 C        -3.3497136016        1.3430736656       -7.3515902359
 C         0.6607766136       -2.8262385659       -4.5840526342
 C         2.2333490535       -0.8753359439       -4.9277594758
 C         1.9047746578        0.2501511681      -12.7796703462
 C         0.4757297754       -1.7246796817      -12.2342499353
 C         6.7539025918       -4.8002361023      -14.8112136502
 C         7.3076437920       -2.7003513568      -16.2253691877
 C         4.6771983512       -4.5383744624      -21.7276381481
 C         6.7945179371       -3.1252762691      -21.9016842604
 C         5.5378120980        3.1335486873      -17.9574911121
 C         4.3953103894        3.2984238693      -20.2240716418
 H         7.2717078056        4.6384302506      -20.2848982126
 H         8.0622379447        3.5823531795      -21.3796363232
 H         8.4323881812        3.4304363905      -19.7390874643
 H         4.2271839560        0.7727639479      -21.3920319532
 H         3.4913801846       -0.0905295180      -20.0920345723
 H         6.3236944957       -0.8258820295      -20.1313485363
 H         5.7088462298       -0.7967307227      -21.8177848394
 H         6.9803546248       -6.0294613624      -19.2036824329
 H         5.1806131143       -5.7938989097      -19.5314846838
 H         7.0490073193       -5.5717009534      -17.2567599923
 H         5.4014496986       -6.4098669281      -17.2509433809
 H         6.2139935821       -2.6217070792      -12.9144004672
 H         4.8114436389       -3.5474486331      -12.8964345243
 H         4.1634580378       -0.6877905304      -13.4603083539
 H         4.6395465328       -1.2109298098      -11.7284836125
 H         0.6836051255       -2.4370712985       -9.6739455845
 H         0.3637150879       -0.7601801633       -9.1225087708
 H         2.2535743616       -0.6086070017       -7.6282681350
 H         2.9059481107       -2.1091173761       -8.3311658752
 H        -0.1410476940        0.4000197200       -3.5657202084
 H        -1.3791163263       -0.8670633854       -3.6935141349
 H        -1.6906958959        1.8380582549       -5.0100251346
 H        -2.4044708108        1.2219938191       -3.5249685451
 H        -4.9215337398       -2.2215289152       -6.5741359174
 H        -4.0100736160       -1.2064835507       -7.7730096552
 H        -6.9921606381       -0.9548273954       -8.0655749027
 H        -6.2289197560       -2.4997822747       -8.7734586000
 H        -6.3044378279       -3.7885719093      -12.0560165608
 H        -6.9024790525       -2.7886971054      -13.3299784298
 H        -8.6617955105       -4.2392914921      -13.2732835541
 H        -9.2110822478       -2.8211063716      -12.5280818233
 H       -11.3956323219       -4.5677151426       -7.9972348848
 H       -10.0352988991       -3.9025461694       -8.9207050749
 H        -8.8343201778       -6.1084523308       -7.9271714753
 H       -10.1646623177       -6.1447909892       -6.8425886111
 H        -8.7904255062       -5.5218879652       -2.3098839266
 H       -10.1890567248       -4.6913289218       -3.0830067036
 H        -9.0746001402       -2.6289250663       -1.8133148508
 H        -8.8147961906       -4.0001206740       -0.6670623450
 H       -13.4761315903       -1.4594019015       -2.3340170074
 H       -12.2710353490       -2.2400574628       -3.1112419954
 H       -12.5581458389        0.8646954406       -3.2503289966
 H       -13.1661715935       -0.3000799979       -4.3527543076
 H       -11.9593659484        2.3863980754       -7.2019999577
 H       -11.5709122067        0.9316899678       -7.9843520423
 H       -11.1641208177        3.0940375232       -9.4174290226
 H        -9.8736579741        1.8993345264       -9.3476210863
 H        -6.1055928361        4.6681578814       -9.9818618752
 H        -6.2879679758        2.8975369334       -9.9287022199
 H        -6.4964896181        3.7868196997       -8.4982752264
 H       -11.0370967123        5.4506767119       -8.9594024229
 H       -10.6180487013        4.6297382256      -10.4007813450
 H       -10.1398473411        6.2396295900      -10.3093668666
 H        -8.8725586710        6.1331740475       -7.2082802911
 H        -8.3646950707        6.9802776094       -8.5659584070
 H        -7.3692033371        5.5945431122       -7.9204250596
 H       -11.1682909884        3.3033041247       -5.1933430487
 H       -11.4657295249        2.7092912990       -3.6671233619
 H       -12.4610039076        2.1563860580       -5.0248774926
 H        -8.8135131117        2.5725635914       -4.8030010580
 H        -8.4468446347        0.8280244803       -4.5361495115
 H        -9.2279548434        1.8424321471       -3.3217454219
 H       -13.3278511691       -1.6547500909        0.4606291163
 H       -12.8829678037       -3.3371675258        0.9541840323
 H       -13.5020020417       -3.1817895611       -0.7693784024
 H       -11.0850101216       -2.3035641290        1.7682835145
 H       -10.5853887107       -0.9103755517        0.9798835815
 H        -9.5079393674       -2.2073771137        0.7292312651
 H        -8.6577587391       -7.2654852839       -5.5764910453
 H        -9.5731289244       -6.3576367402       -4.3025196932
 H        -7.8753922664       -6.9739958358       -4.0329967184
 H        -5.8310768638       -5.2715615862       -4.3804159165
 H        -6.4179598252       -4.1081386089       -5.7185746445
 H        -6.2685456990       -5.7790083100       -6.0484131890
 H       -11.7138466965       -3.3658604564      -10.4858944828
 H       -12.5089217279       -4.5296060356      -11.5086586132
 H       -11.3228694151       -3.3529218075      -12.1036986977
 H        -9.8255292530       -7.0652906911      -12.1728355177
 H       -10.4363535042       -5.8048962250      -13.1975919254
 H       -11.6095368462       -6.6328609001      -12.1037274361
 H        -4.9549641365       -0.7013517720      -13.0420036293
 H        -4.1946067141        0.3220011159      -11.7994072761
 H        -5.8479829235        0.4808587238      -12.3376414985
 H        -3.4215900326       -2.0472398516      -10.7602821131
 H        -4.4176356538       -2.8108910742      -12.0018521740
 H        -4.7769822140       -3.0954289779      -10.1703120076
 H        -4.3967230810        2.9483673586       -5.3191845470
 H        -5.5949768285        1.8887952430       -4.7421533544
 H        -5.7656010185        2.4687505832       -6.3154640820
 H        -2.5007728081        1.9537273395       -7.0341457714
 H        -3.8415808270        1.8178740921       -8.2308753962
 H        -2.7559536075        0.4545709852       -7.5777145858
 H         0.7280855045       -2.7110802216       -3.5147352620
 H         1.2920017469       -3.6755630504       -4.8944932416
 H        -0.3396912875       -3.1417238772       -4.7504901925
 H         2.8254960754       -1.5339868398       -4.1886753659
 H         1.8239619600        0.0128547152       -4.4882174844
 H         2.9856726100       -0.5829960455       -5.7726699275
 H         2.6157198098        1.0125524675      -12.4242784171
 H         1.0531660457        0.7676272237      -12.7234248793
 H         2.0820574367        0.0036856520      -13.8537258571
 H         0.3062152589       -2.5458152105      -11.5435173616
 H         0.5162985061       -2.2181489815      -13.1823744499
 H        -0.3442242286       -1.0082155178      -12.4016756842
 H         6.3761619712       -4.8515669670      -13.7790251705
 H         7.8045635589       -4.5779283102      -14.5725318327
 H         6.8122943214       -5.7071316641      -15.2691221305
 H         8.1974477602       -3.2684124158      -16.6394656704
 H         7.5289701468       -2.1150681330      -15.3100809810
 H         7.0262060062       -1.9591658121      -16.9524960893
 H         3.7570418070       -4.6875889128      -21.1007384549
 H         5.2584312909       -5.4422466058      -22.1305042464
 H         4.3326264920       -4.0423747635      -22.6069543923
 H         7.4612885289       -2.4394187492      -21.4035848118
 H         6.5566581772       -2.7597565711      -22.8538208704
 H         7.5473531139       -3.9725464736      -22.1696161730
 H         6.0574759307        4.0538847633      -18.1913280565
 H         6.2591701024        2.7118150592      -17.1983260394
 H         4.5237010244        3.3395639159      -17.5147255653
 H         4.8514686100        4.2521695178      -20.5909314318
 H         3.4902846009        3.4816885799      -19.5881502616
 H         4.2436374723        2.5505507418      -21.0916403081
 Na       -8.3376647933       -1.2451854014       -5.7770904979
 Na        4.2729021843       -1.4950727883      -17.7177766924
