232

 C         7.7783005182        3.6509731669      -20.3074433619
 C         6.7623722149        2.4523969178      -20.0457430163
 O         7.0342802319        1.3637334674      -20.5772473997
 C         5.3774003341        2.6489783320      -19.3845585758
 C         4.7899364464        1.1203844923      -19.2868664031
 O         4.7794115794        0.6124975342      -18.1564560015
 C         4.3696500178        0.2240445233      -20.4279092290
 C         5.3975264269       -0.8637648696      -20.7776243377
 C         4.7753052295       -2.2708613676      -20.6188463983
 O         3.7833747019       -2.4863635698      -19.8833879609
 C         5.5952417036       -3.5015690629      -21.0548141544
 C         6.2209346257       -3.9440653011      -19.6928965087
 O         7.0562913774       -3.2020432341      -19.2473182437
 C         5.9016377154       -5.3487491836      -19.1212868529
 C         6.0862801184       -5.4402363339      -17.5413355808
 C         5.4395559662       -4.1983874855      -16.9239810640
 O         4.3222634555       -3.9030493322      -17.1508959711
 C         6.2122152053       -3.5291826027      -15.6376011749
 C         5.2101998509       -2.6036977506      -14.8751472024
 O         4.4713104042       -1.7696935134      -15.4577092193
 C         5.0887514030       -2.7915424921      -13.4047078092
 C         4.3185904878       -1.6782333321      -12.7269169357
 C         2.9237377987       -2.1368814762      -12.3696721550
 O         2.6679554760       -3.2995737449      -12.3721017097
 C         1.8121358166       -1.1376338456      -11.9767821387
 C         2.1178255386       -0.8633286219      -10.4389233622
 O         3.1330494284       -0.1890003977      -10.1518739542
 C         1.2451860020       -1.3560867976       -9.3346753390
 C         1.9298985391       -1.5453142335       -7.9371792875
 C         1.0621157748       -2.1913954649       -6.9477901679
 O         0.3557626768       -3.1339042456       -7.2834449084
 C         0.9278847856       -1.6209657722       -5.5273445532
 C        -0.2478639342       -0.5472478631       -5.6196752764
 O        -0.7109649479       -0.1697687594       -6.6817910611
 C        -0.8827698649       -0.1097141042       -4.2688719604
 C        -1.9316372547        1.0299065592       -4.5150526265
 C        -3.3285658455        0.4261119904       -5.0051927620
 O        -3.6288037966       -0.7344896916       -4.6790904303
 C        -4.1920640067        1.0355604659       -6.0579289160
 C        -5.3444477726       -0.0796703181       -6.4144247068
 O        -6.3892178785       -0.0967602583       -5.7199016339
 C        -5.0754544302       -1.2046646087       -7.3643667877
 C        -6.0710646620       -1.4277315150       -8.5316742929
 C        -5.6328089328       -0.6578272377       -9.7753300850
 O        -5.2427813978        0.4365847081       -9.5791465721
 C        -5.5164550140       -1.3914668408      -11.1634301981
 C        -6.9401637872       -1.8110192215      -11.4506070535
 O        -7.9331783854       -1.2626891941      -11.0709746321
 C        -7.1082127482       -3.0052641342      -12.3725319235
 C        -8.5821124073       -3.5710444892      -12.1741348463
 C        -8.7817366697       -4.7826488495      -11.2284104418
 O        -7.9489033843       -5.4396344111      -10.6407983764
 C       -10.3188384720       -5.2437081981      -11.1444500372
 C       -10.6163496998       -5.8368657657       -9.7414630398
 O       -10.9650339472       -6.9837830309       -9.6441706404
 C       -10.4197410278       -4.9603554618       -8.4904772792
 C        -9.5509414296       -5.6022738259       -7.3733030560
 C        -8.7152044152       -4.6523112890       -6.4627917046
 O        -8.3322397855       -3.5101535151       -6.8290950653
 C        -8.1655635953       -5.1784438590       -5.1070014679
 C        -8.4555485607       -4.1905902607       -3.9969005975
 O        -8.2650994609       -2.9899195173       -4.1532221509
 C        -9.1771192803       -4.6901821386       -2.6863315061
 C        -9.3312773903       -3.6045140083       -1.5152880778
 C       -10.8412760677       -3.6271121995       -1.0540573477
 O       -11.5030006810       -4.6325922249       -1.1986507608
 C       -11.5129816947       -2.3273032732       -0.3316638910
 C       -11.4498161831       -1.1445357104       -1.4712216047
 O       -10.4485534783       -0.4315226199       -1.4481600544
 C       -12.5103755823       -1.2346218883       -2.6236085013
 C       -12.3810919338       -0.0991797256       -3.6685177415
 C       -11.0582054790       -0.0179052985       -4.4766860508
 O       -10.4092251907       -1.0837120926       -4.6850518165
 C       -10.4163863533        1.3595091720       -4.9732218888
 C       -10.1260743652        1.1427111861       -6.5217777316
 O        -9.1742487548        0.5328426280       -6.8579624151
 C       -11.1140765325        1.7810605685       -7.5073944244
 C       -10.3734931360        2.4286570494       -8.6358934680
 C        -9.4126185108        3.5935651302       -8.1242914821
 O        -8.8788212476        3.5106870878       -7.0557124880
 C        -9.1267692330        4.7139810526       -9.0630677968
 C        -7.9721244514        4.2525125948      -10.0853606868
 O        -8.3072248562        4.1301780387      -11.2428497443
 C        -6.5131784806        3.7584715517       -9.6100921173
 C       -10.3221258019        5.3817909681       -9.8743967139
 C        -8.5092365311        5.7853743661       -8.0856195668
 C       -11.4946366518        2.5077170880       -4.6965620978
 C        -9.0673244481        1.6537554529       -4.0326803707
 C       -12.9049942404       -2.7044590025        0.1450672714
 C       -10.5695614382       -2.0100062419        0.8118159404
 C        -8.5813963876       -6.6353467660       -4.8374403633
 C        -6.5777429841       -5.1936748714       -5.1864505431
 C       -11.4282208875       -4.1909137707      -11.3164617094
 C       -10.5574262554       -6.3339234177      -12.2114455005
 C        -5.2081239071       -0.3058186341      -12.2158559177
 C        -4.4992881121       -2.5177342620      -10.9576717470
 C        -4.9817433934        2.3368989473       -5.5696315519
 C        -3.3086960894        1.3503339036       -7.2086288212
 C         0.6035743195       -2.8583977828       -4.6330299127
 C         2.2128658142       -0.8489852411       -5.0321327173
 C         1.9399221575        0.2920873575      -12.6210941325
 C         0.4291863551       -1.9031684510      -12.2155361659
 C         6.7593173628       -4.6074282969      -14.6813474769
 C         7.4013551359       -2.6746297092      -16.1860115974
 C         4.8045576318       -4.5965233161      -21.7218035743
 C         6.7294654619       -3.0138842528      -22.0208669973
 C         5.4892471306        3.1218938530      -17.8674106035
 C         4.3288118083        3.4863266822      -20.1078419111
 H         7.2245951023        4.5820366451      -20.3278258773
 H         8.3213293396        3.6440102954      -21.2340455316
 H         8.4026537068        3.5560925762      -19.4513470649
 H         4.2557091772        0.7329125458      -21.3828545639
 H         3.3205498420       -0.0271114981      -20.1714153262
 H         6.2988018897       -0.8477356864      -20.1046309304
 H         5.6583612381       -0.6586033050      -21.7945335961
 H         6.6271953125       -6.0431099224      -19.5683409543
 H         4.8764316975       -5.5905819308      -19.3661726014
 H         7.2711923732       -5.7040740629      -17.3881190472
 H         5.4331417970       -6.2079698417      -17.2595918433
 H         6.0672122444       -2.7154904101      -12.9389963472
 H         4.7589923562       -3.7620271575      -13.0328429693
 H         4.2287515323       -0.8814467437      -13.4710702095
 H         4.7683124949       -1.3191013561      -11.7994512045
 H         0.8140748957       -2.3488097004       -9.6889503279
 H         0.3708763231       -0.6886706457       -9.2363134833
 H         2.4434228832       -0.7154983626       -7.3608819830
 H         2.6690523097       -2.2894060829       -8.2377670834
 H        -0.1602061526        0.1311474712       -3.5369223786
 H        -1.4762979628       -0.9258592534       -3.8651261245
 H        -1.5145283247        1.5998624957       -5.2969723424
 H        -2.1022989984        1.7588532201       -3.6602053085
 H        -5.0085050187       -2.0491368614       -6.6592749845
 H        -4.0996400279       -1.0483606722       -7.8222572398
 H        -7.0116636996       -1.0458169651       -8.1912430263
 H        -6.1390378448       -2.4451351891       -8.6315912917
 H        -6.2666522838       -3.6931489891      -12.1054753678
 H        -6.9329106937       -2.7707601666      -13.4182164273
 H        -9.1508583739       -3.6553747826      -13.1628534929
 H        -9.1512852713       -2.6819754711      -11.7794393822
 H       -11.4449476935       -4.7969478835       -8.0539446623
 H       -10.0440015703       -3.9670853575       -8.7997496701
 H        -8.8227289105       -6.3196771075       -7.8125892203
 H       -10.2407766864       -6.2308052354       -6.7792605549
 H        -8.6621999393       -5.4785938507       -2.2680001086
 H       -10.1903377522       -4.9696111552       -2.9857057891
 H        -8.9669268784       -2.7148847610       -2.0131185486
 H        -8.6555370046       -3.9222980661       -0.8073099784
 H       -13.5453875684       -1.1823338465       -2.2059963219
 H       -12.5642677294       -2.2519275793       -3.0516592173
 H       -12.5423572482        0.8567969652       -3.2835980607
 H       -13.2428524700       -0.1995881919       -4.2944354889
 H       -11.7526380603        2.5035847500       -7.0536408693
 H       -11.7552008714        0.9711451485       -7.9031858393
 H       -11.0775781094        2.7055440438       -9.4575739137
 H        -9.6570623131        1.6517467861       -9.1611478782
 H        -5.8159304543        4.5193956575       -9.9038066590
 H        -6.2952840028        2.8509481118      -10.1242812486
 H        -6.3001014139        3.4705449750       -8.5811422754
 H       -11.1708695467        5.6059462877       -9.1165148939
 H       -10.7166027744        4.7255762352      -10.6277557385
 H       -10.0087791554        6.2743257977      -10.3927173106
 H        -8.9773765636        6.0042320550       -7.1501590341
 H        -8.6298540212        6.7540481487       -8.5279145357
 H        -7.4276964003        5.6112114753       -8.0090336282
 H       -11.2120429510        3.5250263515       -5.0775330025
 H       -11.4889030021        2.6120028026       -3.5920103850
 H       -12.4119935326        2.2016170427       -5.0993504659
 H        -8.6152391443        2.5995420543       -4.2795108535
 H        -8.2918153966        0.8787522159       -4.1657083296
 H        -9.3164094158        1.7452175824       -2.9941015366
 H       -13.4494258215       -1.7449725196        0.2868621038
 H       -12.7209842676       -3.1147609283        1.2171495246
 H       -13.3454899516       -3.4994178284       -0.5419796155
 H       -10.6611779754       -2.5801862291        1.7171101798
 H       -10.8283900195       -0.9886637005        1.2282589279
 H        -9.5871215154       -1.8417640272        0.4114421574
 H        -8.1946350895       -7.0240078707       -5.7507165703
 H        -9.6296826358       -6.7095246769       -4.6774652628
 H        -7.8683151876       -7.0396079170       -4.0696819691
 H        -6.2468016561       -5.5510086119       -4.2024824336
 H        -6.2273192332       -4.1539286762       -5.3840805279
 H        -6.3184281850       -5.9096124563       -5.9882101895
 H       -11.3973052567       -3.5003184491      -10.4954998978
 H       -12.4177929866       -4.5671962976      -11.3352977166
 H       -11.1819714606       -3.5649422095      -12.2094951655
 H        -9.6606873562       -6.9249546751      -12.5188699040
 H       -10.7617330998       -5.7176124325      -13.1347841801
 H       -11.4366308011       -6.9653226966      -11.9257395752
 H        -5.1875686827       -0.6300932626      -13.2540893077
 H        -4.3045915044        0.2643478585      -11.9503016339
 H        -5.9723901412        0.4833345341      -12.2802007208
 H        -3.4857267537       -2.1806761316      -10.7524124473
 H        -4.4039609830       -3.1346648616      -11.8142449953
 H        -5.0444803527       -2.9896712257      -10.1473934432
 H        -4.3638303461        3.1920992455       -5.2728102166
 H        -5.7083648640        2.1647112858       -4.7836308941
 H        -5.6360117001        2.5867142420       -6.4002441918
 H        -2.6089755765        2.1310079940       -7.0458556008
 H        -3.8840418647        1.5817740850       -8.1077310943
 H        -2.6045849065        0.4605822860       -7.3041142929
 H         0.3325494228       -2.6421895670       -3.6718394094
 H         1.4543307681       -3.5570720194       -4.5805675496
 H        -0.1608497248       -3.4136674624       -5.0727391398
 H         2.5118666045       -1.4437900365       -4.1380008163
 H         1.7957138593        0.1615769130       -4.6885699189
 H         3.0822584549       -0.7571101580       -5.6611667528
 H         2.5401114868        0.9062436932      -12.0246700205
 H         1.0266380737        0.8880792746      -12.6022077970
 H         2.2932372320        0.2624497307      -13.6260970812
 H         0.4831546580       -2.8869839933      -11.7891201946
 H         0.4171481152       -2.0925572926      -13.2828026860
 H        -0.4988376089       -1.3361100411      -12.0995638393
 H         6.2758892595       -4.6553315526      -13.6811178361
 H         7.8265767055       -4.5931710219      -14.3946374877
 H         6.6867418321       -5.6167686873      -15.1779605981
 H         8.1700481434       -3.3884637019      -16.6145345280
 H         7.8054388895       -2.1006539415      -15.3748662809
 H         7.1179634392       -1.9446344410      -17.0210571485
 H         3.8888051631       -4.6843071436      -21.0592728900
 H         5.4096774138       -5.4624340885      -21.8268026865
 H         4.5101006180       -4.3469788821      -22.7339371736
 H         7.5230815393       -2.4927142564      -21.4949618266
 H         6.6039035862       -2.5955217762      -23.0577677647
 H         7.2624214011       -3.9213629322      -22.2675331888
 H         6.0212442611        4.0428881693      -17.6352749423
 H         6.0767933679        2.3503608385      -17.3728979517
 H         4.5093525038        3.0555122994      -17.4024088711
 H         4.6807794042        4.5189118430      -20.1307052784
 H         3.4167363059        3.4150332380      -19.4338643539
 H         4.2035868228        3.0308783983      -21.0864607543
 Na       -8.3229206262       -1.3214660809       -5.6771024972
 Na        4.1345281905       -1.7235663772      -17.6942067712
