232

 C         7.7256474915        3.6638862630      -20.1084662957
 C         6.6324880575        2.4835070927      -20.1107593049
 O         7.0304695586        1.4534765288      -20.5467847497
 C         5.2153614792        2.5731503702      -19.3060960088
 C         4.7257374299        1.1417788938      -19.2179286893
 O         4.7416209408        0.4972560815      -18.1443967533
 C         4.2431771181        0.4216678963      -20.4971388136
 C         5.2114328518       -0.8193290666      -20.7841634529
 C         4.7360479236       -2.2814468065      -20.5816498169
 O         3.7577637213       -2.6157325315      -19.9661623981
 C         5.6597443015       -3.4933844106      -21.1600697661
 C         6.3141964282       -3.9158324788      -19.8183507772
 O         7.0750676197       -3.2259833672      -19.1656364117
 C         5.7256654985       -5.2006912581      -19.2166210456
 C         6.2894174696       -5.2785040136      -17.7185700027
 C         5.5752279173       -4.2704732003      -16.8499825322
 O         4.4863796185       -3.8803399906      -17.2496517169
 C         6.2912496804       -3.5614156085      -15.6201741044
 C         5.2212789918       -2.6105341967      -14.8983076603
 O         4.4326223045       -1.8118065288      -15.4168522039
 C         5.1026123168       -2.7393762397      -13.3871243856
 C         4.3465013623       -1.6220688093      -12.6601353886
 C         2.9104978624       -2.2243813936      -12.3471851920
 O         2.7369548246       -3.4084490002      -12.3414444587
 C         1.8407963967       -1.2152470964      -11.9122578469
 C         2.1401148564       -0.8720074257      -10.4246971946
 O         3.1329738333       -0.2270312503      -10.2764247442
 C         1.2189432098       -1.3772749617       -9.3275602763
 C         2.0258132791       -1.4893267795       -8.0359743001
 C         1.0106167132       -2.2152619007       -7.0165254937
 O         0.3286724017       -3.1368279028       -7.4185123167
 C         0.8219326857       -1.5895000497       -5.5575697521
 C        -0.3333356521       -0.6302208903       -5.6226882142
 O        -0.7193983011       -0.2218982137       -6.6853718173
 C        -0.9963840177       -0.1389606569       -4.3623659255
 C        -1.9820784323        1.0736730907       -4.5498114468
 C        -3.3828030066        0.4159830474       -4.9473677796
 O        -3.5946904209       -0.6825271382       -4.5574545054
 C        -4.2503966030        1.1276720507       -6.0366809976
 C        -5.3317048221        0.0260020735       -6.2965048616
 O        -6.3427891220       -0.0878296756       -5.6416551967
 C        -5.0669609574       -1.1891193885       -7.3825055926
 C        -6.1092939079       -1.3739209071       -8.4819480037
 C        -5.5753409027       -0.6086311936       -9.7200686666
 O        -5.1674549839        0.5291169854       -9.6026905931
 C        -5.5954551207       -1.3945095145      -11.1192948097
 C        -6.9672110475       -1.8383630655      -11.5004693670
 O        -7.8908700650       -1.1766535866      -11.0755166808
 C        -7.3041513531       -3.1755511067      -12.4228947754
 C        -8.7632242173       -3.5990858203      -12.0693601866
 C        -8.7940664902       -4.8843717863      -11.3090778825
 O        -7.8062571707       -5.3307258157      -10.7563848089
 C       -10.2373596014       -5.3608279867      -11.1934182678
 C       -10.5006460904       -5.9826737946       -9.6615726666
 O       -11.1276016760       -7.0014159000       -9.5296770741
 C       -10.2833191308       -4.9840207055       -8.4613897806
 C        -9.5515085998       -5.6972344082       -7.2858979222
 C        -8.6968463193       -4.7002625749       -6.4397386670
 O        -8.5072566126       -3.5715333385       -6.9115695173
 C        -8.1948464290       -5.2709971981       -5.1553839910
 C        -8.6556916923       -4.2531675966       -3.9728525505
 O        -8.2909455908       -3.0913443416       -4.0152906257
 C        -9.1538605488       -4.7843830795       -2.6363905098
 C        -9.3799831467       -3.6200271138       -1.6327161438
 C       -10.7319948713       -3.6138622567       -1.1218627915
 O       -11.4939159276       -4.5438982989       -1.1388265505
 C       -11.3499373643       -2.2836974122       -0.3758810572
 C       -11.3497996837       -1.2076221074       -1.5299052019
 O       -10.4765365586       -0.3835127150       -1.4938394593
 C       -12.4412740040       -1.1124523430       -2.5535864534
 C       -12.3152770290       -0.0040754387       -3.6007379432
 C       -11.0037157401        0.0229129883       -4.3057784226
 O       -10.4551057463       -0.9844322807       -4.6495164309
 C       -10.4870667678        1.3769771689       -4.8316002268
 C       -10.0356651260        1.1638942299       -6.3552621078
 O        -9.1987069532        0.3744893605       -6.7924637022
 C       -10.9966213555        1.7435447119       -7.3875820315
 C       -10.2552605049        2.2723959806       -8.6398997150
 C        -9.3557112684        3.5055541523       -8.1830337121
 O        -8.9070408222        3.4006086511       -7.0185031116
 C        -9.0166496663        4.7656310056       -9.0745356564
 C        -8.0080664327        4.2962286192      -10.1374284290
 O        -8.1717490152        4.3487808002      -11.3043605669
 C        -6.6627282277        3.7372629910       -9.6727750387
 C       -10.2038422303        5.2913324640       -9.8996443022
 C        -8.5531075650        5.9183967812       -8.1054910210
 C       -11.3606777199        2.6021633981       -4.6488470535
 C        -9.2355831516        1.5822107096       -3.9705954476
 C       -12.8491087837       -2.6826341810        0.1134049008
 C       -10.4928513933       -1.8881535311        0.8316557075
 C        -8.5949593408       -6.8224691532       -4.8825027857
 C        -6.6066930295       -5.1909436216       -5.1424808960
 C       -11.2275604964       -4.2034280130      -11.3184265062
 C       -10.4857050472       -6.4505064397      -12.2569713479
 C        -5.1919369675       -0.3623003027      -12.3056572759
 C        -4.5551037015       -2.5712981730      -11.1447344369
 C        -4.8745482654        2.5979136188       -5.5274604895
 C        -3.3716488233        1.4593301021       -7.2976163303
 C         0.5078564302       -2.7623443843       -4.5669971785
 C         2.1472879988       -0.8664132937       -5.0516736111
 C         1.8655996319        0.1679776022      -12.5901860580
 C         0.4519506998       -1.7981252064      -12.1412886263
 C         6.8483961206       -4.5645841607      -14.6926102510
 C         7.4259257979       -2.6202848787      -16.1722933198
 C         4.7609369959       -4.6581558525      -21.8123510717
 C         6.7348096015       -3.0274406247      -22.1978544159
 C         5.5566843555        3.1332535389      -17.8840256017
 C         4.3211513724        3.7030815832      -20.0448952784
 H         7.1370093702        4.5472216020      -20.3212903065
 H         8.4568706218        3.6742181707      -20.9322784053
 H         8.1711763933        3.6510223718      -19.0041827245
 H         4.2066737881        1.0291755987      -21.3967747134
 H         3.1555961605        0.2237052060      -20.3477368688
 H         5.9640393102       -0.7834455508      -19.9843497470
 H         5.7210147651       -0.6449826806      -21.7898544593
 H         5.9787127709       -6.0841853347      -19.7299757616
 H         4.6225113385       -5.0267343798      -19.1644122357
 H         7.2747013686       -5.0946765900      -17.8112763889
 H         6.0701816646       -6.3462101700      -17.4117731979
 H         5.9123254572       -2.9871267761      -12.7588556613
 H         4.5194466715       -3.6638840483      -13.2246714187
 H         4.3103309637       -0.7428925535      -13.2969732281
 H         4.6989772875       -1.3381006221      -11.6543433383
 H         0.6567920689       -2.2141211056       -9.6708535936
 H         0.4996943528       -0.6400910018       -9.0116442911
 H         2.2405516506       -0.4634135576       -7.6245192729
 H         2.9703690427       -2.0147318711       -8.2425788024
 H        -0.1316178309        0.2420987367       -3.8155293819
 H        -1.4948464927       -0.8008126727       -3.6990654246
 H        -1.5643866327        1.6451734258       -5.3526008096
 H        -2.0268778946        1.7192123384       -3.6752536269
 H        -4.9862621445       -2.0186019993       -6.7174023062
 H        -4.1148089905       -1.0713568446       -7.9107131543
 H        -7.0429179522       -1.1342991674       -8.1430153562
 H        -6.0749079696       -2.4385244760       -8.6626704778
 H        -6.5062770453       -3.9553100885      -12.2275904491
 H        -7.2896497501       -3.0448646915      -13.5001115308
 H        -9.3452429837       -3.6723795025      -13.0232077484
 H        -9.2280919366       -2.7677441183      -11.6094786025
 H       -11.3219708704       -4.6893340765       -8.2029603566
 H        -9.7000620873       -4.1170039796       -8.7541706667
 H        -8.8005367230       -6.4385128074       -7.7881738787
 H       -10.2601271635       -6.3457389173       -6.7687100813
 H        -8.2546998640       -5.2453422062       -2.2670794103
 H       -10.0355854107       -5.4409519573       -2.6792377137
 H        -9.1426211039       -2.7747711516       -2.2815528067
 H        -8.5935624049       -3.7858135465       -0.9315528570
 H       -13.4143574970       -1.0471243089       -2.0443047621
 H       -12.6454986327       -2.1096235666       -3.1130738153
 H       -12.6282067526        1.0149012966       -3.3487679300
 H       -13.1048974380       -0.1921335529       -4.2893351469
 H       -11.6883992750        2.5456094004       -7.0493506007
 H       -11.6244477594        0.8205526015       -7.7189662770
 H       -10.9784112163        2.4961386664       -9.4250602015
 H        -9.5729191989        1.5263394381       -9.1463509033
 H        -5.8799690669        4.5323654394       -9.7136131772
 H        -6.3574953984        2.8330012452      -10.1141838099
 H        -6.7272787071        3.4886933980       -8.6275307734
 H       -11.0820083842        5.5617749856       -9.3244419683
 H       -10.4744751537        4.4458118909      -10.6582248751
 H        -9.8772785215        6.1338369350      -10.5406331706
 H        -9.2674922451        6.1657617278       -7.3344575407
 H        -8.5855516276        6.8592280996       -8.5664784518
 H        -7.5158780981        5.8114981180       -7.7701136883
 H       -10.8404573846        3.4892931629       -5.0589008594
 H       -11.4731626545        2.8305089203       -3.5244590315
 H       -12.3177679094        2.4257047523       -5.2272599436
 H        -8.7696519793        2.5180615872       -4.1365692282
 H        -8.5369562205        0.8418579162       -4.1998554793
 H        -9.4864379238        1.5690444846       -2.8650599240
 H       -13.4056449728       -1.7591004408        0.1343473098
 H       -12.7284932937       -2.9840413521        1.1668594512
 H       -13.2437049021       -3.4840360831       -0.5078159623
 H       -10.1854842784       -2.6801514171        1.4598460716
 H       -11.0903803089       -1.3400411423        1.5660331129
 H        -9.6963584520       -1.2286339250        0.5398095884
 H        -7.9793760529       -7.2870521837       -5.6079886772
 H        -9.6981375883       -6.8713608531       -5.0713055521
 H        -8.3064843390       -7.1313604820       -3.8959531079
 H        -6.4532529960       -5.6735754611       -4.2035403431
 H        -6.1821531363       -4.1933854058       -5.1002127962
 H        -6.2354236276       -5.8825577502       -5.9957089439
 H       -10.9965844655       -3.3371169337      -10.6806396020
 H       -12.2497608948       -4.4514284081      -11.0303412654
 H       -11.1864786540       -3.8505094446      -12.3947860549
 H        -9.5022534022       -6.8284879223      -12.5117173409
 H       -10.8332512177       -6.0248452636      -13.2326134925
 H       -11.1475387217       -7.2618068213      -11.8542889134
 H        -5.2760291040       -0.9142055332      -13.2988761222
 H        -4.2206517016        0.0603251548      -12.2087288064
 H        -5.7962924869        0.4926110794      -12.4984675703
 H        -3.5949913891       -2.0776275745      -10.8683104522
 H        -4.3993716841       -2.9496321667      -12.0802431386
 H        -4.9468349815       -3.2927026831      -10.4636056900
 H        -4.0581366697        3.2472051219       -5.1580404114
 H        -5.6537101408        2.4888359496       -4.7158048492
 H        -5.4947581708        3.0683812662       -6.3150932002
 H        -2.9121417236        2.4689500668       -7.2793502351
 H        -4.0323443205        1.4849434090       -8.1422054565
 H        -2.5469309279        0.7757870031       -7.3869784806
 H        -0.0108203663       -2.3567895293       -3.6874445340
 H         1.3260139200       -3.1929255645       -4.1212777183
 H        -0.0631146266       -3.6125936560       -4.9621511187
 H         2.3562282144       -1.2631671198       -4.0967296683
 H         2.0894900463        0.2402910127       -5.0596638268
 H         2.9054237498       -1.2029132908       -5.6826560572
 H         2.5972781580        0.7869382382      -12.1445622192
 H         0.9556218544        0.8556488737      -12.3984507658
 H         1.9824403488        0.0618677117      -13.6190128956
 H         0.5379210783       -2.8789824582      -12.0655549041
 H         0.1478872886       -1.5925935583      -13.1928784271
 H        -0.3332634764       -1.3620802122      -11.5780548970
 H         6.1529514052       -4.8158821113      -13.8863412240
 H         7.7977807127       -4.4045614312      -14.1705133329
 H         7.0624164664       -5.5349592519      -15.3142680250
 H         8.0022977495       -3.2783332669      -16.7969414792
 H         8.0846270995       -2.1792406096      -15.3906127955
 H         7.0130946690       -1.8516966294      -16.8646776278
 H         3.9490554098       -4.7373958403      -21.1812832880
 H         5.3604728921       -5.5126729505      -21.7393170176
 H         4.5171448114       -4.6316874997      -22.9075216810
 H         7.5991042470       -2.5260580676      -21.7145185140
 H         6.4820525204       -2.5005414865      -23.1657637881
 H         7.1826199550       -3.8867642707      -22.6290292575
 H         5.9857785459        4.1294788095      -17.7533710539
 H         6.1895653652        2.4260158023      -17.4285044509
 H         4.6703314924        3.0404339145      -17.2741612490
 H         4.8431144355        4.5586067303      -19.6685274923
 H         3.3180504071        3.6853661770      -19.6935716913
 H         4.4047072272        3.6115965559      -21.0645314390
 Na       -8.2600717785       -1.4360020082       -5.6477035448
 Na        3.9820108901       -1.8103521306      -17.7203028362
