232

 C         7.4211131202        3.8132477134      -19.7661071029
 C         6.6875597427        2.4927857598      -19.9455497874
 O         6.9121114335        1.5260518584      -20.6797832448
 C         5.1840501379        2.5020237506      -19.0762585114
 C         4.6904820750        1.0368539480      -19.2566568985
 O         4.4974574784        0.4984084236      -18.1778782093
 C         4.1824466637        0.3396334009      -20.4946219195
 C         5.1468945744       -0.7467482011      -20.9531909126
 C         4.6743258524       -2.2411571951      -20.7516109625
 O         3.6725801817       -2.5392350823      -20.0905107052
 C         5.5117974575       -3.3466646248      -21.3511444954
 C         6.2963817831       -3.8241991459      -19.9976355185
 O         7.1703038377       -3.0889561853      -19.5999492414
 C         5.9791290337       -5.1514524413      -19.2624884988
 C         6.4131075353       -5.1719786939      -17.7755947143
 C         5.6696893635       -4.1482789166      -16.8683681736
 O         4.5370684201       -3.8900382036      -17.1689996944
 C         6.3852820133       -3.5553523612      -15.6555406127
 C         5.3376786636       -2.7631090026      -14.7794623993
 O         4.6400515498       -1.9973429306      -15.4413511534
 C         5.3666152492       -2.6483091331      -13.3318848324
 C         4.3140235676       -1.6895492225      -12.7554010045
 C         2.8666506560       -2.2636263705      -12.4311043265
 O         2.6098060904       -3.4385639863      -12.2829654535
 C         1.7967632110       -1.1498678618      -11.9395999928
 C         2.1431659697       -0.8334839352      -10.4574147786
 O         3.2625617676       -0.3510241761      -10.1832457586
 C         1.2868493301       -1.3972283580       -9.3276017705
 C         1.8230356184       -1.4163272995       -7.8888264016
 C         0.9373927418       -2.2262465763       -7.0130222994
 O         0.3188541885       -3.2072320623       -7.3593130195
 C         0.7315458718       -1.6039927159       -5.5509338628
 C        -0.4188105665       -0.5767473468       -5.6684067832
 O        -0.8209048926       -0.2700268174       -6.7790672558
 C        -0.8638875635        0.1090858247       -4.4234236306
 C        -1.9825063456        1.1254350846       -4.6508138996
 C        -3.3172511199        0.5294439269       -4.9480553224
 O        -3.8527927332       -0.4743107102       -4.4179986377
 C        -4.2315513925        1.1835439803       -6.0481747603
 C        -5.3687797630        0.0569197367       -6.2760103371
 O        -6.3849833752        0.1407345086       -5.5869691315
 C        -5.0944203352       -0.9948708312       -7.2189638965
 C        -5.8977839056       -1.1717339165       -8.5262801139
 C        -5.3751005713       -0.5656636558       -9.8309857485
 O        -5.1627744732        0.5961903820      -10.0036835126
 C        -5.5250412278       -1.3524395297      -11.2079599235
 C        -7.1276681231       -1.7575697421      -11.4844774842
 O        -8.0066575387       -1.0856879763      -11.0137304571
 C        -7.2903587688       -2.9641762400      -12.3408858825
 C        -8.6702778192       -3.6367403611      -12.3537224828
 C        -8.8415528118       -4.8529061173      -11.4243165639
 O        -7.8558557418       -5.3453949356      -10.9181614316
 C       -10.2915653429       -5.5620550702      -11.1616672441
 C       -10.4596627694       -6.0694074358       -9.6837152315
 O       -11.1676092588       -7.0099946905       -9.3903895489
 C        -9.9099160827       -5.1377402252       -8.6113728151
 C        -9.5222697428       -5.8312875880       -7.3069007573
 C        -8.9264017442       -4.8967647631       -6.3407839064
 O        -8.7356896882       -3.7167758910       -6.6992719973
 C        -8.1736556208       -5.4363509933       -5.0294945617
 C        -8.5764352702       -4.4074293285       -3.8896504463
 O        -8.4243434209       -3.1974921143       -4.0719632192
 C        -9.0014160188       -4.9515565989       -2.5191436331
 C        -9.3328528235       -3.6219148997       -1.5603767458
 C       -10.7978147151       -3.5748996200       -1.0265863897
 O       -11.5171021121       -4.5674908902       -1.1649072480
 C       -11.2758702328       -2.2623704658       -0.4236164301
 C       -11.2555048917       -1.1585150545       -1.5599048629
 O       -10.3924751044       -0.2820221447       -1.5846071402
 C       -12.4319757847       -1.0784022857       -2.5448670382
 C       -12.2966739290        0.1770739133       -3.3360649694
 C       -11.0621073701        0.1061233120       -4.1811111282
 O       -10.5712002462       -1.0225544048       -4.4126570679
 C       -10.4198336340        1.3801669643       -4.7623784929
 C       -10.0496987300        1.1255989186       -6.2596357478
 O        -9.2366554093        0.2350580106       -6.5148806461
 C       -10.8602831286        1.6479990309       -7.4475852211
 C       -10.0517773578        2.2001100507       -8.6334342759
 C        -9.2516839514        3.4127439794       -8.1400443327
 O        -8.8153238382        3.5399485898       -7.0454972692
 C        -9.0884993008        4.6278549211       -9.1354238769
 C        -7.8921255903        4.3354461021      -10.0961770243
 O        -7.8840176012        4.7524957014      -11.2536550925
 C        -6.6222341729        3.6910235219       -9.5967491636
 C       -10.4426887409        4.9979157874       -9.8509419739
 C        -8.4958138351        5.8490928989       -8.3480555220
 C       -11.2457389263        2.6861177340       -4.5074323571
 C        -9.0262682150        1.5026488122       -3.9460451132
 C       -12.7907271421       -2.3864267080        0.1181943937
 C       -10.2959401240       -1.7608463567        0.7164490007
 C        -8.6224572367       -6.8488461497       -4.7299105284
 C        -6.5729394998       -5.2708127805       -5.2078874234
 C       -11.5578851779       -4.5880498642      -11.3232788335
 C       -10.3513578516       -6.7789497172      -12.0882209247
 C        -5.1418179722       -0.4326909514      -12.3024093487
 C        -4.6009200481       -2.5966456352      -11.1976751523
 C        -4.8025835102        2.4069011749       -5.2570851701
 C        -3.5107785963        1.5624225702       -7.4828274762
 C         0.3644946970       -2.7973236772       -4.5761097027
 C         1.9739071140       -0.8739127156       -4.9993389840
 C         1.7828080527        0.0371025875      -12.9634802156
 C         0.3654920677       -1.8164435840      -12.0184804774
 C         7.1301380249       -4.6756059527      -14.8536323113
 C         7.3591962023       -2.4594761467      -16.0940845072
 C         4.6493363846       -4.4680909531      -22.0115316407
 C         6.6380292372       -2.8941689354      -22.2648375701
 C         5.4449755605        2.9433505396      -17.6203627202
 C         4.3185761464        3.5577734680      -19.9378937779
 H         6.9118411480        4.6987170539      -20.2258655822
 H         8.2893570654        3.7169088315      -20.4144158805
 H         7.7315237731        3.8682270062      -18.7840868325
 H         3.7944529764        1.0590719056      -21.2224907113
 H         3.2713896351       -0.2349776738      -20.3175251767
 H         6.1051075370       -0.6045815704      -20.4156954843
 H         5.3312094065       -0.6677814914      -21.9843570087
 H         6.6050182465       -5.8969685299      -19.8547418292
 H         4.9552882730       -5.4628970785      -19.2551202814
 H         7.6130244652       -4.8410337631      -17.7657467054
 H         6.3132656823       -6.1832789614      -17.5127167214
 H         6.3366292997       -2.2088406559      -12.9714377786
 H         5.4892463036       -3.5868968897      -12.7930683239
 H         4.2534962314       -0.7456675082      -13.3568223481
 H         4.5407969527       -1.3569345306      -11.7165319573
 H         1.0900995981       -2.4101242461       -9.7322805161
 H         0.2915671292       -0.9641770630       -9.2025422499
 H         1.8730541330       -0.4550325099       -7.4372935129
 H         2.8035537053       -1.8473480327       -7.8071448486
 H        -0.0116850057        0.5700452564       -3.8681036121
 H        -1.2561163269       -0.6726284851       -3.6850220198
 H        -1.7391145930        1.7630119650       -5.5203476335
 H        -2.1019481012        1.7718731265       -3.7569870163
 H        -5.1437403520       -1.9440653078       -6.6340980318
 H        -4.0333632812       -0.8396976376       -7.4044170327
 H        -7.0272816592       -0.8260805793       -8.3381132224
 H        -5.9348693494       -2.2926271417       -8.5659828678
 H        -6.5728868379       -3.6905597616      -11.9901643026
 H        -6.8401059756       -2.7181777051      -13.3153530850
 H        -8.9594280654       -3.8156734440      -13.3604951038
 H        -9.4038538328       -2.9327285412      -11.8922997326
 H       -10.7157788163       -4.4362413791       -8.4479388920
 H        -8.9512351964       -4.6796347454       -8.8787079761
 H        -8.7561099346       -6.5348235241       -7.4895741562
 H       -10.2973672385       -6.4475998341       -6.7737461520
 H        -8.1284300460       -5.4755245251       -2.0465138824
 H        -9.9736051784       -5.4620421438       -2.4025902949
 H        -9.0106997503       -2.8210809587       -2.2255754210
 H        -8.5913587746       -3.8023924700       -0.7790433819
 H       -13.3495089211       -1.0313318965       -1.9540684144
 H       -12.6061703609       -1.9196302439       -3.1247528438
 H       -12.4442325341        1.1015031677       -2.7554307381
 H       -13.1378389338        0.3253770459       -4.1183732534
 H       -11.5822205756        2.3931206529       -7.1367890243
 H       -11.3458837144        0.8118256683       -7.8904887372
 H       -10.6600575311        2.3709585261       -9.5030365219
 H        -9.3953784099        1.4465362501       -9.0286610727
 H        -5.8717870595        4.4657570399       -9.5190907201
 H        -6.3212116486        2.9758920203      -10.4173626731
 H        -6.5660175893        3.0695517255       -8.6612947469
 H       -11.1701515389        5.3698778813       -9.0952257879
 H       -10.8491737533        4.2455138369      -10.4075325178
 H       -10.2462009182        5.8434523560      -10.4646321729
 H        -9.2955401350        6.4602046617       -7.9504679505
 H        -7.9222606585        6.6449982419       -8.8776653672
 H        -7.7777379992        5.5550269893       -7.5978239658
 H       -10.6996615305        3.5148684316       -5.0541066046
 H       -11.1800128452        2.9153630804       -3.4527450843
 H       -12.2417558853        2.6314620464       -4.8601199645
 H        -8.5546075477        2.4821044591       -4.2094981043
 H        -8.2372536598        0.7224385052       -4.1801730913
 H        -9.2296523341        1.5211451721       -2.9188602329
 H       -13.0172217866       -1.5040609394        0.6270919016
 H       -12.7001601672       -3.2132584939        0.8053557364
 H       -13.3850802055       -2.5284842772       -0.7268594467
 H        -9.3695900629       -2.3656355953        0.6833151035
 H       -10.6103511617       -1.9227705427        1.7473408625
 H        -9.9471746690       -0.7582750679        0.5392516827
 H        -8.2763931002       -7.4872113807       -5.5588587323
 H        -9.6357422796       -6.8241786772       -4.4962327435
 H        -8.0993066999       -7.0446464303       -3.7691989056
 H        -5.9784326414       -5.4963639209       -4.3249203955
 H        -6.4549151524       -4.2141117321       -5.4018867429
 H        -6.3774699142       -5.8463608833       -6.0346983145
 H       -11.4880099851       -3.8078377172      -10.5566092329
 H       -12.5021403022       -5.1078556628      -11.0367397816
 H       -11.7288542776       -4.1786937286      -12.3139968280
 H        -9.4131232236       -7.2990942966      -12.0166013222
 H       -10.4848613535       -6.4817026037      -13.0824774995
 H       -11.1244033134       -7.4064367238      -11.7647818778
 H        -5.3071727274       -0.7766783629      -13.2629775079
 H        -4.1299189463        0.0073502494      -12.2825395233
 H        -5.7606907646        0.4734147675      -12.2154106239
 H        -3.5963477345       -2.3102995392      -10.9141175757
 H        -4.5681823060       -3.0256163660      -12.2599669798
 H        -5.0878203597       -3.3609314886      -10.5458017313
 H        -4.0105980331        3.0042845369       -4.7742801031
 H        -5.4609334360        2.0376380868       -4.4928151006
 H        -5.4447608191        3.0781583778       -5.8135397691
 H        -3.1205648083        2.5425696278       -7.4192889672
 H        -4.2566366271        1.6787970419       -8.2746572185
 H        -2.7140338238        0.8238056803       -7.7698220996
 H         0.0301561212       -2.7059752684       -3.5441919154
 H         1.3666561688       -3.3940726730       -4.3725504359
 H        -0.2022315878       -3.5682995940       -5.1155256911
 H         1.7315881874       -0.1142507846       -4.2477127036
 H         2.5421753943       -0.3468144033       -5.8110239258
 H         2.6607783206       -1.6650042536       -4.7237054890
 H         2.8203518526        0.4163874720      -13.1626115343
 H         1.3140778787        0.9304590946      -12.6491814307
 H         1.2592020338       -0.2837231631      -13.9291522620
 H         0.4620196294       -2.8812973726      -11.7777478521
 H        -0.1110717363       -1.7061448752      -12.9812942190
 H        -0.2913156035       -1.3564682227      -11.2282812223
 H         6.8870270819       -5.6781258531      -15.1796001329
 H         6.9398615995       -4.6611932522      -13.8108722694
 H         8.1566809133       -4.5973795777      -14.9316250429
 H         8.1046164110       -2.8094026213      -16.8426992191
 H         7.9533915757       -2.1699644255      -15.2597303833
 H         6.7960614178       -1.6567843260      -16.5424022950
 H         3.8247719748       -4.8653002398      -21.3015570879
 H         5.3206570360       -5.2862194353      -22.3674838417
 H         4.2956452696       -4.0669389138      -22.9073162022
 H         7.2503092602       -2.1608683431      -21.8117586203
 H         6.3167356145       -2.4448074156      -23.1944673756
 H         7.2492978190       -3.6729527368      -22.7269964068
 H         5.7728567553        3.9775969340      -17.6597339883
 H         6.2607313150        2.2888965572      -17.2055009485
 H         4.6841821024        2.9262186315      -16.8139212189
 H         4.6708407334        4.5480352194      -19.7786046811
 H         3.2616753848        3.3530608125      -19.6443282417
 H         4.3494261281        3.1984535279      -20.9766783919
 Na       -8.1327397985       -1.6603969176       -5.6358402050
 Na        3.7030253391       -1.6341374709      -17.8423032652
