232

 C         7.4788653617        3.7879402772      -19.7667222713
 C         6.6226511416        2.5892131189      -19.9149157541
 O         6.9415063406        1.7083085267      -20.6700406899
 C         5.2306075337        2.4506374923      -19.1581277104
 C         4.5815848382        0.9521722832      -19.0860008703
 O         4.3664468092        0.4115751739      -17.9994582728
 C         4.1862596898        0.3490079094      -20.4110629414
 C         5.1185763979       -0.7285322945      -21.0771349454
 C         4.6451736454       -2.1779330475      -20.8281228288
 O         3.6396133371       -2.2676195535      -20.0689919451
 C         5.4956513802       -3.3079004735      -21.3822751515
 C         6.4070677770       -3.7964972791      -20.0999804890
 O         7.2163131196       -3.0028295813      -19.7679068847
 C         6.2106489947       -5.1629805079      -19.3994335138
 C         6.4339982303       -5.1150224960      -17.8514090082
 C         5.6042441926       -4.1718152281      -17.0098330172
 O         4.4986918629       -3.8254834525      -17.1848432307
 C         6.4574197824       -3.4932423468      -15.6555573821
 C         5.3791811879       -2.7023986941      -14.7899269146
 O         4.5453722625       -2.0035216120      -15.4326680603
 C         5.3910274797       -2.6722146207      -13.2554862259
 C         4.2911761848       -1.6953687122      -12.7220730465
 C         2.8758694326       -2.2782237932      -12.3975660327
 O         2.5802213052       -3.4064741653      -12.3602224584
 C         1.8144242414       -1.2053627415      -11.9798056150
 C         2.2473718590       -0.9392644953      -10.5006126404
 O         3.2832864789       -0.3357833132      -10.2656682905
 C         1.2420930022       -1.5354730188       -9.4334420348
 C         1.7625413812       -1.3321833953       -8.0196120024
 C         0.9397234030       -2.1691879744       -7.0195864791
 O         0.3677077583       -3.2243387537       -7.2295876059
 C         0.7699511673       -1.6316210528       -5.5821789483
 C        -0.4257218744       -0.5406015289       -5.6523376177
 O        -0.9107786863       -0.2855625798       -6.7346350510
 C        -0.8725402679        0.1696176835       -4.3968664020
 C        -2.0039158599        1.2281935812       -4.7165342521
 C        -3.3701562882        0.4900183887       -5.0465728369
 O        -3.7250823560       -0.3801661653       -4.3165030005
 C        -4.3378672298        1.2429474175       -5.9861381087
 C        -5.4399475716        0.1609114916       -6.4027480099
 O        -6.4328092041        0.1612789251       -5.7250251850
 C        -5.0205257790       -1.0850713646       -7.3676529520
 C        -5.9162926842       -1.1917107193       -8.6486619903
 C        -5.5239810324       -0.3942874678       -9.8676104712
 O        -5.0675065882        0.7070980458       -9.9202786496
 C        -5.6124757224       -1.2863988745      -11.2503668644
 C        -7.0287850626       -1.7834455865      -11.3944624215
 O        -7.8958626212       -1.0868221030      -10.9498552144
 C        -7.3494324177       -3.0792844504      -12.3666122453
 C        -8.7882479809       -3.6202692403      -12.4082446515
 C        -8.9666365883       -4.8676479808      -11.4996640054
 O        -8.0354080496       -5.3999047349      -10.9577070623
 C       -10.2849116979       -5.5839067723      -11.2399409030
 C       -10.3458174170       -6.0110207831       -9.6671307050
 O       -11.0430145859       -6.9679132355       -9.4609416931
 C        -9.7096596677       -5.1667352042       -8.5110400623
 C        -9.4624041430       -5.9597199799       -7.2260908756
 C        -8.8081538314       -4.9431930130       -6.2636381952
 O        -8.8165547530       -3.7204513296       -6.5372570741
 C        -8.1900406919       -5.3901876790       -4.9383842353
 C        -8.5185194544       -4.3518725898       -3.8340924179
 O        -8.4473363191       -3.1539130828       -4.0084302026
 C        -9.0262038917       -4.8560211356       -2.4701322246
 C        -9.2828568712       -3.7304853318       -1.4231320943
 C       -10.7532195827       -3.5910294497       -1.0896208558
 O       -11.5790540454       -4.4535190111       -1.1421547605
 C       -11.2324012202       -2.2179912128       -0.4753306364
 C       -11.3318135917       -1.1089660767       -1.4909110125
 O       -10.3644694701       -0.3912325750       -1.5780091052
 C       -12.4746309190       -0.9792200629       -2.5384924667
 C       -12.3289027868        0.2605353536       -3.3354446563
 C       -11.0568606610        0.1309788737       -4.1507515399
 O       -10.5319874050       -0.9748841502       -4.4114021774
 C       -10.2856196588        1.4172848730       -4.7579883876
 C       -10.0083056453        0.9369101992       -6.2504648153
 O        -9.1770516415        0.1951076961       -6.5966241088
 C       -10.9011474860        1.5769820944       -7.3364500357
 C        -9.9914247678        2.1314135523       -8.4586353917
 C        -9.2645060236        3.4918690856       -8.0796006356
 O        -8.7311484011        3.5650888621       -6.9936683492
 C        -9.0525111056        4.6306815992       -9.1233479752
 C        -7.8020152186        4.3137228764      -10.2295175442
 O        -7.8129246446        4.9302506160      -11.2437770479
 C        -6.6083994536        3.5931606700       -9.5619402073
 C       -10.3952103175        4.9067968783       -9.8579457522
 C        -8.5591249348        5.8380028798       -8.4061508007
 C       -11.1741222406        2.6359070204       -4.5435345530
 C        -8.9236783700        1.5371484082       -4.0676564846
 C       -12.6439592114       -2.3520102654        0.2740102815
 C       -10.2419537229       -1.8109590643        0.6887633149
 C        -8.5629787675       -6.9616855989       -4.5906314861
 C        -6.6974559238       -5.3852738155       -5.3231507609
 C       -11.6294949632       -4.8471287875      -11.5032898117
 C       -10.3371595400       -6.8828875244      -12.0785221187
 C        -5.2077384863       -0.4276686254      -12.4458537746
 C        -4.6578528764       -2.6476702987      -11.0640872881
 C        -4.8791198989        2.4671065228       -5.1817427394
 C        -3.6168257856        1.5767594567       -7.2813938230
 C         0.2667345749       -2.8047851750       -4.6236438193
 C         1.9998493950       -0.9726106550       -4.8380242201
 C         1.7708038866        0.0254719417      -12.9527464864
 C         0.4212435881       -1.8789141510      -12.0351739616
 C         7.2175194655       -4.6869693175      -14.8917155949
 C         7.4595372543       -2.4183622713      -16.1120152224
 C         4.5880893628       -4.4656352244      -22.0383400401
 C         6.5761333458       -2.7910290015      -22.3201802742
 C         5.2419362370        2.7485266091      -17.6708541949
 C         4.2279974509        3.3085971304      -19.8453210740
 H         7.1641105209        4.6765036146      -20.1636839019
 H         8.2497936033        3.4607154435      -20.3937492997
 H         7.8831219224        3.8079169177      -18.7567666264
 H         4.0322738767        1.2076616553      -21.0388994502
 H         3.1970261032       -0.1217774393      -20.5166125098
 H         6.0972603266       -0.6119001057      -20.5900233628
 H         5.2664031307       -0.5722096626      -22.1243123012
 H         6.9443513748       -5.7977272579      -19.9235304369
 H         5.2038659306       -5.6330279643      -19.5112247379
 H         7.4867881906       -4.9496914107      -17.6221658483
 H         6.1252820683       -6.1457642100      -17.4839187119
 H         6.3498617535       -2.3940268601      -12.8016918424
 H         5.3293532899       -3.6786522490      -12.7805950997
 H         3.9764681325       -1.0409468484      -13.5468685620
 H         4.5186579595       -0.9820871672      -11.9094590409
 H         0.9809766855       -2.6209940043       -9.6726740295
 H         0.2494964895       -1.0040469051       -9.5157001924
 H         1.7068557670       -0.2781682726       -7.6112927943
 H         2.7970556501       -1.6077805079       -7.9693790759
 H        -0.0198226913        0.7473591115       -4.0285963509
 H        -1.0489119398       -0.5419044546       -3.5484126969
 H        -1.6073448301        1.7634006881       -5.5514572104
 H        -2.1689657051        1.9620205235       -3.8401534252
 H        -5.3141102046       -1.9464482089       -6.7190777705
 H        -3.9100062510       -1.1444200764       -7.4189963476
 H        -6.9150103194       -0.8274922411       -8.3123038970
 H        -6.0748573747       -2.2609063675       -8.8028933381
 H        -6.7313640707       -3.9975782313      -12.1904681426
 H        -6.9434974660       -2.7656124535      -13.3034436358
 H        -8.8696058136       -4.0872204751      -13.4674651729
 H        -9.6149856896       -2.8840035055      -12.2477299537
 H       -10.4964264650       -4.4351049233       -8.2338406951
 H        -8.7328934235       -4.7301916204       -8.7118750353
 H        -8.8864606597       -6.8812987948       -7.3619785171
 H       -10.3505652948       -6.3042288974       -6.7398978342
 H        -8.2140535701       -5.3507144239       -2.0545487423
 H        -9.9706073701       -5.4084194948       -2.3247848475
 H        -8.8318267694       -2.8507442051       -1.9015185106
 H        -8.7077876420       -4.0843318204       -0.6530845838
 H       -13.4343632903       -1.0403511392       -2.0700413782
 H       -12.4731394565       -1.8456565981       -3.1867886546
 H       -12.3579082972        1.1245775703       -2.7333479403
 H       -13.0862769574        0.5145015556       -4.0885891233
 H       -11.4565262850        2.3463807159       -6.9707573960
 H       -11.4998921507        0.8703197280       -7.8477532511
 H       -10.4290051302        2.0530167569       -9.4496235506
 H        -9.1501203127        1.3221839293       -8.5724576652
 H        -5.8801431230        4.4258891068       -9.3727785621
 H        -6.2006516251        2.9676594330      -10.3172954593
 H        -6.6194799867        2.9792520647       -8.6600260592
 H       -11.0829465001        5.1182317767       -9.0479364248
 H       -10.7607074267        4.0388903420      -10.4103621976
 H       -10.3643981024        5.7944533798      -10.3906555836
 H        -9.3625131267        6.4927865933       -8.0275730015
 H        -8.0110804698        6.4995876826       -9.0223570316
 H        -7.7789072116        5.6551251876       -7.6223274836
 H       -10.7879634600        3.5293947177       -5.0009084312
 H       -11.1991164605        2.7386829732       -3.4571093874
 H       -12.1394921556        2.3964428169       -4.8563847881
 H        -8.3489385401        2.3577439440       -4.4877765595
 H        -8.3409365003        0.6414880835       -4.2832928434
 H        -9.0386239367        1.6431170021       -2.9462377431
 H       -12.8038197507       -1.4618714923        0.8874265658
 H       -12.4937199367       -3.2914853003        0.8826233343
 H       -13.3257271607       -2.3908051416       -0.5853009294
 H        -9.1934404346       -2.0553353960        0.4738090249
 H       -10.4683364130       -2.3572179971        1.6691007258
 H       -10.1771710321       -0.7220409573        0.8416548670
 H        -8.3847759174       -7.4731009528       -5.4977693463
 H        -9.5385348088       -7.1049940362       -4.1215132282
 H        -7.8102644084       -7.1970669619       -3.8189694151
 H        -6.1367104512       -5.5897438971       -4.4642354105
 H        -6.4139027958       -4.4216009251       -5.6745834553
 H        -6.6607113810       -6.2093827091       -6.0958368512
 H       -11.8288327843       -4.1951319066      -10.6974216667
 H       -12.4180890385       -5.5405362240      -11.4871245227
 H       -11.7571178456       -4.3439586361      -12.4965044276
 H        -9.6098190302       -7.5855784697      -11.7652096875
 H       -10.2353550233       -6.6710857367      -13.1394557462
 H       -11.3141879574       -7.2805290469      -11.8660673118
 H        -5.1983385546       -0.8135479919      -13.4909007472
 H        -4.1952310518       -0.0922101970      -12.2565463932
 H        -5.7257635682        0.5179653008      -12.4640335910
 H        -3.5758688672       -2.2958909287      -10.8357603734
 H        -4.7077376298       -3.1268344947      -11.9918861352
 H        -5.0866734204       -3.3835669264      -10.3190013356
 H        -4.1903967534        3.2336626890       -4.9169765026
 H        -5.3926957180        2.0600204845       -4.3261090259
 H        -5.6706222641        2.8858263120       -5.7678853672
 H        -3.0666677974        2.4879412409       -7.1130904214
 H        -4.2766155828        1.8281397018       -8.1195332768
 H        -2.9563356033        0.6897548472       -7.5424208431
 H         0.1768666386       -2.6872495304       -3.5700736580
 H         1.0303782695       -3.5706964639       -4.6488172101
 H        -0.5683106645       -3.3497079821       -5.0598140095
 H         1.4772821365       -0.1672874046       -4.2777325176
 H         2.7137806084       -0.3789094623       -5.5800658751
 H         2.6406911804       -1.6971393873       -4.3137617146
 H         2.6938848426        0.5428897419      -12.9449302181
 H         1.0515755032        0.8142418163      -12.4634033138
 H         1.3945089364       -0.1401747917      -13.9313611618
 H         0.3662052177       -2.7628995641      -11.3918973291
 H         0.2544653945       -2.1735951496      -13.0886485173
 H        -0.3383168748       -1.1566364693      -11.7028949492
 H         7.4108606085       -5.4916385315      -15.5771102455
 H         6.7983242703       -5.0378456040      -13.9929566014
 H         8.2732371163       -4.3778504823      -14.6025788390
 H         8.3177566128       -2.7047198665      -16.7144673173
 H         7.9473354730       -2.0089376379      -15.2489565873
 H         6.8233472072       -1.6654734564      -16.6753663230
 H         3.8251872830       -4.8357325323      -21.3121540055
 H         5.0269194569       -5.2544655784      -22.6320301990
 H         4.1019837747       -3.7437509560      -22.7964306354
 H         7.1598019955       -1.9483191406      -21.9707028968
 H         6.2067646758       -2.4423459101      -23.3293477916
 H         7.1790961603       -3.5312914961      -22.6730673284
 H         5.3731362329        3.8048350934      -17.3142929983
 H         5.8671254329        2.0122745091      -17.1478703166
 H         4.2586154729        2.5037597853      -17.2198105048
 H         4.6376983390        4.3671079887      -19.6508837588
 H         3.2818959232        3.0881215322      -19.2345270150
 H         4.0004068746        3.0812433525      -20.8966759320
 Na       -8.1460142504       -1.5941084954       -5.6195900888
 Na        3.6495816555       -1.6461911960      -17.8196127398
