232

 C         6.9734237867        3.9241612925      -18.8485370099
 C         6.1269929708        2.8626495737      -19.4221250363
 O         6.4966828842        2.3490776382      -20.4434421454
 C         4.7537430712        2.4771377484      -18.6811648717
 C         4.2946245860        0.9569392621      -18.9469262588
 O         4.4001004055        0.0686893958      -18.1396097694
 C         3.9582269167        0.4773340203      -20.3696743197
 C         4.9339544788       -0.4773134850      -20.9756982404
 C         4.3742198100       -1.9192389863      -20.9000674147
 O         3.4542635213       -2.2298077030      -20.2015224874
 C         5.2559733874       -3.0269051219      -21.6431187749
 C         6.3771540425       -3.3032355375      -20.5109667050
 O         7.1971953594       -2.4132236201      -20.3274885131
 C         6.5291716485       -4.6031479328      -19.7149014133
 C         7.0398524458       -4.5365720432      -18.3144443510
 C         6.0655448758       -3.8526030793      -17.3912585126
 O         4.9690761966       -3.5602595309      -17.9300780848
 C         6.4615538282       -3.3191427490      -15.9701395997
 C         5.1876236895       -2.8511148716      -15.1323191204
 O         4.1804805035       -2.4129682368      -15.5983615772
 C         5.4992253119       -2.7557568618      -13.5801346607
 C         4.4673440695       -1.7867403493      -12.9142397975
 C         3.0167105733       -2.3993618815      -12.7889793147
 O         2.8501372577       -3.5744846537      -13.0215360917
 C         1.8118510358       -1.5244681950      -12.1674004862
 C         2.1646960562       -1.5477609052      -10.6411637215
 O         3.0510019194       -0.8192682401      -10.2517394595
 C         1.4091309019       -2.3496077126       -9.5707923140
 C         1.0174441941       -1.4397599111       -8.3906205720
 C         0.7887882326       -2.2286781709       -7.1023060373
 O         0.9751798933       -3.4183327035       -7.0195192762
 C         0.4109772915       -1.3968476418       -5.8121963462
 C        -0.6236988966       -0.2343410998       -5.9494253043
 O        -1.4487768760       -0.1739051590       -6.8355155851
 C        -0.6805619418        0.8951632820       -4.8109412029
 C        -2.0953189953        1.5997615887       -4.7488245814
 C        -3.1625908141        0.6636919073       -4.9954471803
 O        -3.1789581609       -0.5070685547       -4.6672733989
 C        -4.4735888754        1.1568326471       -5.8663792911
 C        -5.2677085993       -0.1504070417       -6.3239769239
 O        -6.1205200821       -0.5907982715       -5.5650263476
 C        -4.8584934209       -1.0180496676       -7.4841508293
 C        -6.0928241645       -1.2943451242       -8.4489481077
 C        -5.8344764472       -0.6888827830       -9.8303037074
 O        -5.3956395690        0.4238984308       -9.8561833481
 C        -5.9881082028       -1.5730710148      -11.0701422100
 C        -7.5088528959       -2.1438577215      -11.1851197791
 O        -8.1997611385       -2.1566081475      -10.1905714420
 C        -7.9950389813       -2.7272458667      -12.4791988154
 C        -9.3276048341       -3.4709270173      -12.2623863398
 C        -8.9320743496       -4.9131764547      -11.5239175999
 O        -7.7552273438       -5.1065718541      -11.3131442674
 C        -9.9759599091       -6.0525611205      -11.0836606879
 C        -9.9199499348       -6.2437457844       -9.5712756925
 O       -10.2569307500       -7.2602770613       -9.0346449834
 C        -9.3710612701       -5.1355971454       -8.6076354026
 C        -9.6140117929       -5.5575507811       -7.1589238741
 C        -8.9534206690       -4.6951562468       -6.1383601385
 O        -8.8990178633       -3.4949511906       -6.3076208626
 C        -8.3469467684       -5.3685794723       -4.7923943457
 C        -8.5255546592       -4.4130867922       -3.5316408911
 O        -8.1395608590       -3.2205539705       -3.5886103829
 C        -9.0022801322       -4.9824534904       -2.2480162011
 C        -9.1563943614       -3.9063316502       -1.1682073903
 C       -10.5790230158       -3.2928892544       -1.0554966022
 O       -11.4996853529       -3.6920578707       -1.7808209485
 C       -10.8415706196       -2.0754295114       -0.1160122814
 C       -10.9400528803       -0.7794818056       -1.0496429892
 O       -10.0781214307        0.0693024255       -0.9148554380
 C       -12.0399948860       -0.7260450644       -2.0762500088
 C       -11.8285139065        0.4269948253       -3.1860503599
 C       -10.7055908716        0.0878226619       -4.1592795057
 O       -10.1844824072       -1.0209536396       -4.1847836149
 C       -10.0767779187        1.3690650274       -5.0428705106
 C        -9.9044386641        0.8979311924       -6.5241379793
 O        -9.0438106172        0.0423957383       -6.8667257469
 C       -10.8599813871        1.4409295201       -7.5964710946
 C       -10.2021713037        2.3868865340       -8.7072861693
 C        -9.2028042220        3.4443524653       -8.2048659982
 O        -8.6820090476        3.2737070989       -7.0953249021
 C        -8.8390028085        4.6640120309       -9.0817970189
 C        -7.5187251109        4.3491143835       -9.9724128408
 O        -7.5262932602        4.5925891873      -11.1449019836
 C        -6.2820583802        3.6959782157       -9.2656621291
 C        -9.9595434146        4.9052913326      -10.1117954060
 C        -8.6024259832        5.7628459542       -7.9844460471
 C       -10.9004923116        2.7838779567       -4.8758134968
 C        -8.6722918057        1.5717993709       -4.4887001704
 C       -12.1485396439       -2.4699081977        0.6214511589
 C        -9.6413086469       -1.8967002981        0.9226583274
 C        -8.8164534874       -6.7320135714       -4.4088312169
 C        -6.7342948308       -5.4276715631       -4.9590343902
 C       -11.4601581350       -5.7514483672      -11.5455081846
 C        -9.4529806861       -7.4613708799      -11.6954565723
 C        -5.7983879923       -0.5847604231      -12.3215396436
 C        -5.0165704354       -2.7485967256      -11.1496065162
 C        -5.4351893327        1.9208718528       -4.8621391609
 C        -4.1266952632        2.0532263538       -7.0277355271
 C        -0.4512871066       -2.3852541056       -4.9878204409
 C         1.6625271922       -1.0491939520       -5.0116629130
 C         1.7834651880       -0.0879423529      -12.7095450377
 C         0.4377054639       -2.2066550933      -12.4001342673
 C         7.4577388798       -4.1967102486      -15.2180847736
 C         7.2744031806       -1.9281531089      -16.3474192647
 C         4.5593112836       -4.3564776727      -21.9103186733
 C         5.9149291234       -2.4890479386      -22.8730662586
 C         4.8385828028        2.6291789673      -17.1641833391
 C         3.6412105285        3.3548026395      -19.2515339625
 H         7.9549925312        3.4969314963      -18.5739053924
 H         6.4846986891        4.4092929865      -18.0177676836
 H         7.0627433970        4.6760863537      -19.5321409196
 H         3.8450089434        1.3610032142      -21.0523194225
 H         3.0765170588       -0.1608162440      -20.4224791036
 H         5.9190194215       -0.4648729085      -20.6291487315
 H         5.0855205386       -0.2193627230      -22.0406677166
 H         7.1720617744       -5.2542369269      -20.3441840091
 H         5.6319450115       -5.2218012172      -19.6385192305
 H         8.0915066091       -3.8941068619      -18.1894658202
 H         7.3296224381       -5.4553532279      -17.8979669030
 H         6.4531472657       -2.2064567229      -13.4258896917
 H         5.5764233596       -3.7449977310      -13.0488209154
 H         4.1394061475       -0.9189807488      -13.5054746093
 H         4.7592452469       -1.2926135600      -11.9823671710
 H         2.0861798874       -3.1304722024       -9.1952658008
 H         0.6497135160       -2.8329536012      -10.2022788785
 H         0.2369081406       -0.8006150781       -8.6690344496
 H         1.8827123885       -0.8196757051       -8.1976935784
 H         0.0355876867        1.7372070166       -5.1179568503
 H        -0.2424823708        0.6247928713       -3.8506035927
 H        -2.2173096388        2.3792702660       -5.5768217686
 H        -2.1153420156        2.0405710023       -3.7653126950
 H        -4.4551491864       -1.9611497757       -7.0314845901
 H        -3.9965955337       -0.4910090824       -7.9656806265
 H        -6.8967030383       -0.6083927357       -8.0685576855
 H        -6.4385870351       -2.3739729478       -8.3842200411
 H        -7.2921127223       -3.4913031716      -12.8002007413
 H        -7.9645469747       -2.0438255134      -13.3053385908
 H        -9.9352056946       -3.6039798986      -13.1682556570
 H        -9.9167078446       -2.9432709271      -11.4870689883
 H        -9.7777415144       -4.1361653549       -8.8803295595
 H        -8.3036978428       -5.0174560798       -8.8780521298
 H        -9.1843173811       -6.5752418975       -7.0582431131
 H       -10.6541248693       -5.6034581134       -6.9864122355
 H        -8.4114655694       -5.8501552462       -1.8588257182
 H        -9.9817581872       -5.4995363307       -2.3456791972
 H        -8.4523375112       -3.1208998275       -1.2528031086
 H        -8.8805436200       -4.3402107780       -0.1609524767
 H       -12.9714251065       -0.6066185814       -1.5912490567
 H       -11.9538936516       -1.7090783130       -2.5380533291
 H       -11.4075656163        1.2724745255       -2.5601731745
 H       -12.6871652218        0.7543965345       -3.7745649607
 H       -11.6381070452        2.0101293313       -7.1342603297
 H       -11.3773860782        0.7145836621       -8.1064614111
 H       -11.1383277178        2.8661844625       -9.1467339260
 H        -9.7363745394        1.7726283619       -9.4606194994
 H        -6.4346588883        3.4349187422       -8.2384617514
 H        -5.3496273018        4.3570127287       -9.2995236533
 H        -6.0712037108        2.6745159562       -9.6033681763
 H       -10.8569648993        5.0617870020       -9.5085222361
 H       -10.0537184375        4.1476858526      -10.8099532119
 H        -9.6417936211        5.7917220284      -10.6579295655
 H        -9.3851996008        6.0236382873       -7.2877967124
 H        -8.2913768256        6.7404553610       -8.4538145124
 H        -7.8314523746        5.5285353924       -7.2979543878
 H       -10.4309615256        3.4810206070       -5.5595299548
 H       -10.7236226772        3.0956422935       -3.8906331108
 H       -11.9267287470        2.5804156042       -5.1659724538
 H        -8.2084173205        2.3641556412       -5.1101273468
 H        -8.1134758237        0.6131454785       -4.5630188452
 H        -8.6392937921        1.9213693992       -3.4981865368
 H       -12.4391561002       -1.6514788351        1.2169624342
 H       -11.9680745949       -3.3143031442        1.2322252234
 H       -12.7654373497       -2.6272515055       -0.2291109196
 H        -9.0567276687       -2.8283193474        1.0281214297
 H       -10.0178629907       -1.6962899640        1.8991254031
 H        -8.9907064809       -1.1191839811        0.5722688313
 H        -8.4924780119       -7.5514676662       -5.0935644145
 H        -9.9123909512       -6.7782884536       -4.3113134724
 H        -8.3615666207       -7.0394905350       -3.5005291031
 H        -6.3673367809       -5.9813240149       -4.0678855055
 H        -6.4900679506       -4.3572356126       -4.9791785056
 H        -6.3874235417       -5.8949869621       -5.8011039125
 H       -11.6237188355       -4.6578962415      -11.6910306300
 H       -12.1683807946       -6.0227057006      -10.7229080826
 H       -11.6678194096       -6.1544004585      -12.4954940781
 H        -8.3943443069       -7.5333941077      -11.3776768027
 H        -9.4752328141       -7.4927248674      -12.7707993345
 H       -10.0060953468       -8.2811317289      -11.2537642919
 H        -5.8803938372       -1.0919406965      -13.2410569197
 H        -4.7419399120       -0.3353784722      -12.3383044472
 H        -6.3870898096        0.3275011905      -12.4103202419
 H        -3.9687464635       -2.4804967559      -11.0615899643
 H        -5.0803311447       -3.1413793595      -12.2462186034
 H        -5.2977738140       -3.5230140409      -10.4089153695
 H        -4.9461873383        2.7598166413       -4.3182355084
 H        -5.8888154182        1.2373002601       -4.1313777380
 H        -6.2677741495        2.2408534227       -5.5030154165
 H        -3.8179070779        3.0614234946       -6.7143082573
 H        -4.8844483464        2.0643781817       -7.7918390605
 H        -3.2332891195        1.6147865952       -7.3680310284
 H        -1.4533411376       -2.5412179878       -5.4007540727
 H        -0.5526028837       -2.2288418833       -3.8224392326
 H         0.0090777716       -3.3953859183       -4.9998043764
 H         1.5625221521       -1.0668979023       -3.9237583692
 H         2.0158571513       -0.0820965081       -5.4673350376
 H         2.4893508112       -1.7441665929       -5.0380397724
 H         2.6341614730        0.4747928417      -12.2099329298
 H         0.9119242145        0.3915833934      -12.3968490050
 H         1.9361518019       -0.0458476568      -13.8411556716
 H         0.5824319662       -3.2295552172      -12.0913128121
 H         0.1966213921       -2.2466701295      -13.4520624293
 H        -0.4041505555       -1.7372954451      -11.9044233575
 H         8.2872573297       -4.5428272913      -15.7765107501
 H         6.9066697842       -5.0802296588      -14.9933925121
 H         7.7611324793       -3.7155549321      -14.3769952803
 H         8.2199693673       -2.1574794995      -16.7965094619
 H         7.3255067594       -1.3530900231      -15.4369041963
 H         6.8472214851       -1.2708851105      -17.0146055322
 H         3.5822151651       -4.4076560205      -21.3642165224
 H         5.2459975675       -5.2650111555      -21.7596356415
 H         4.3691437902       -4.4515017928      -22.9458501388
 H         6.6695081809       -1.7594999932      -22.6583562453
 H         5.3103008326       -2.0308177361      -23.5767706835
 H         6.5257598919       -3.2433937593      -23.4461936064
 H         4.7833258122        3.6523133469      -16.8631225402
 H         5.6392718944        2.3240046374      -16.4862015717
 H         3.9278926456        2.1550121462      -16.8196641881
 H         3.7424711523        4.2494467599      -18.7191279291
 H         2.6170397319        2.9798992840      -19.0436724630
 H         3.7751979646        3.6638993107      -20.2896564602
 Na       -8.1730922717       -1.5715617170       -5.4476734240
 Na        3.5082742202       -2.0875864878      -17.9826809165
