232

 C         6.9826397048        4.0469516144      -18.7529034370
 C         6.0637853407        2.8339496156      -19.3767665889
 O         6.3340968046        2.3209408598      -20.4406910147
 C         4.6616765005        2.3937221587      -18.6025364447
 C         4.3766017010        0.8979790727      -18.9452064307
 O         4.4046275059        0.0260330235      -18.0643700775
 C         3.9007706309        0.6066012813      -20.3714007734
 C         4.8611914551       -0.4999121095      -20.9353264640
 C         4.4479466866       -1.9648716981      -20.8607430218
 O         3.3983322964       -2.3062344261      -20.3235852080
 C         5.3218046383       -3.0812073703      -21.5891339961
 C         6.4156474901       -3.3473822304      -20.5344139381
 O         7.1219925621       -2.4119732982      -20.2273109338
 C         6.6487018520       -4.7225897398      -19.8145915452
 C         7.1528538845       -4.3641580699      -18.3988356894
 C         6.0910483131       -3.6719094765      -17.4723147472
 O         4.9422943217       -3.5965208898      -17.8134250889
 C         6.4821630323       -3.2060475447      -15.9953036359
 C         5.2777231082       -2.8130602755      -15.1321037026
 O         4.1937777231       -2.4783838969      -15.6077006987
 C         5.4318439579       -2.6817745793      -13.6623200316
 C         4.4092023719       -1.7422148404      -13.0294353120
 C         3.0504867132       -2.4933258003      -12.8502902825
 O         2.9231179658       -3.6341824877      -13.0232045154
 C         1.8559244931       -1.5990814142      -12.1945263369
 C         2.1879669242       -1.4972913241      -10.6542842455
 O         3.1847524493       -0.9251525065      -10.2625608853
 C         1.3799063350       -2.3952909200       -9.5936147147
 C         0.9709224670       -1.4587043940       -8.4827175327
 C         0.7149887605       -2.1994192380       -7.1593125334
 O         0.8955565013       -3.4246950094       -7.0903574908
 C         0.3776270212       -1.3682069747       -5.8096513739
 C        -0.5295524487       -0.1680311649       -6.0149529585
 O        -1.3839235677       -0.0897415609       -6.8795643955
 C        -0.4917761314        0.9378338251       -4.9600223316
 C        -1.9386564517        1.6158909443       -4.8450680017
 C        -3.1331221013        0.5500852348       -5.0913015832
 O        -3.1901137287       -0.5061490852       -4.5636419804
 C        -4.4638575863        1.0815709329       -5.8550629777
 C        -5.2414964941       -0.2251489197       -6.2150568450
 O        -6.2335666497       -0.5484266079       -5.6495487151
 C        -4.7690107849       -1.0307936233       -7.4894699371
 C        -6.1082190233       -1.3695028312       -8.3175332525
 C        -5.8687855517       -0.7506502929       -9.7528038007
 O        -5.4534836026        0.3911381925       -9.7904627093
 C        -6.0997806279       -1.5947840687      -11.0740864040
 C        -7.5982252147       -2.2409479349      -11.0943726637
 O        -8.2242784769       -2.2635674785      -10.0808931011
 C        -8.1118711773       -2.8324452730      -12.4269342351
 C        -9.4075056897       -3.6705905065      -12.2673581677
 C        -8.9931404849       -4.9459351901      -11.5756104652
 O        -7.8498404302       -4.9998080120      -11.2410016821
 C        -9.9017523134       -6.0219280117      -11.1613499419
 C        -9.8570026731       -6.2911015680       -9.5653119184
 O       -10.2228823870       -7.3796319557       -9.1526171784
 C        -9.4149906960       -5.1578497567       -8.5437083525
 C        -9.5804260634       -5.5752290466       -7.0816913937
 C        -8.8667498548       -4.6674953566       -6.1075523974
 O        -8.8466492879       -3.4882356878       -6.3340349272
 C        -8.3474731114       -5.3176605285       -4.7302612789
 C        -8.5244570953       -4.3467446114       -3.5696153916
 O        -8.1300479288       -3.1851708406       -3.6025993774
 C        -8.9415873475       -5.0007512336       -2.2371442199
 C        -9.1049445207       -3.9519672158       -1.1987604021
 C       -10.4929350417       -3.3169806097       -1.0533016187
 O       -11.4158581375       -3.6289684856       -1.7351873837
 C       -10.7537159688       -2.1150376253       -0.1250131230
 C       -10.8871503741       -0.7834460358       -0.9988448897
 O       -10.2397841868        0.2368848295       -0.8937314711
 C       -11.9673304285       -0.7251080382       -2.1780805405
 C       -11.8038515784        0.5154359047       -3.0183372236
 C       -10.6938612690        0.2774119372       -4.1037234585
 O       -10.2005267556       -0.7679760665       -4.2026602236
 C       -10.1205868956        1.3964052838       -5.0591180099
 C        -9.8878725129        0.9806528081       -6.6057748752
 O        -8.8928121790        0.2330340789       -6.8619862932
 C       -10.8352765448        1.4413724613       -7.6802902241
 C       -10.2102231722        2.3054227466       -8.7655069565
 C        -9.2257162821        3.3152655383       -8.1808320171
 O        -8.6812980498        3.1847967309       -7.1416489794
 C        -8.8203605621        4.5634449406       -9.0581568886
 C        -7.5301371530        4.2715708135       -9.8650997302
 O        -7.5599871726        4.4406306443      -11.0671414876
 C        -6.3010791751        3.7677019739       -9.1192720489
 C        -9.9697461017        4.9907547818      -10.0116273482
 C        -8.5553431575        5.7091032751       -8.0613567985
 C       -10.9148992564        2.6802389110       -4.8704169671
 C        -8.6909971950        1.5988922782       -4.5084270021
 C       -12.1181189443       -2.3630865077        0.6031115129
 C        -9.6310048336       -1.8816872976        0.9988277370
 C        -8.7661478473       -6.7894921402       -4.5819432803
 C        -6.7296117399       -5.4169267183       -4.8319334516
 C       -11.4123301976       -5.9219739421      -11.5692924036
 C        -9.3357464531       -7.2880050862      -11.8295547659
 C        -5.8059666062       -0.5981986409      -12.2895896568
 C        -5.0878185586       -2.7072267293      -11.1785871694
 C        -5.3312513367        1.8726660501       -4.8351404007
 C        -4.1635396219        1.9433995692       -7.0546807551
 C        -0.4464215505       -2.4395659984       -4.9072409651
 C         1.6011343996       -1.0311520774       -5.0512478235
 C         1.8169819587       -0.1660277485      -12.8214047994
 C         0.3868247574       -2.1990084357      -12.3085301957
 C         7.5111859384       -4.1984201153      -15.4143428373
 C         7.1863783466       -1.7878201166      -16.1254328090
 C         4.3186322830       -4.2030833430      -22.0199455318
 C         5.9979710845       -2.4508920160      -22.8237864290
 C         4.7728118487        2.6358338985      -17.0695493471
 C         3.6101479055        3.3644260230      -19.2747922647
 H         7.9375716794        3.8170963960      -19.0698098446
 H         6.8980415300        4.3916759439      -17.7469875770
 H         6.6304613393        4.9188929343      -19.3552189294
 H         4.0163528168        1.5810365275      -20.8854788987
 H         2.9056087794        0.1614124470      -20.4442633678
 H         5.8167164481       -0.4639507324      -20.4004834549
 H         5.2141890103       -0.3288072054      -21.9480863851
 H         7.4269696413       -5.2896997087      -20.4014958811
 H         5.8316590807       -5.4451750766      -19.7779449785
 H         8.0197828528       -3.7321032180      -18.4936015403
 H         7.5567466006       -5.1567630616      -17.7475570119
 H         6.4372644245       -2.2578128086      -13.3550151301
 H         5.2753618490       -3.6705179548      -13.2052185657
 H         4.1417120429       -0.7864670815      -13.4212659695
 H         4.6928581615       -1.5138229851      -12.0195303605
 H         2.1272915636       -3.1956180889       -9.3403760544
 H         0.5717358365       -2.9146745535      -10.1395438213
 H         0.0713261046       -1.0652225792       -8.9121343294
 H         1.6967676615       -0.6069025423       -8.3362911188
 H         0.2766000054        1.6964129522       -5.1667222213
 H        -0.1457488114        0.5428883965       -3.9989327548
 H        -2.0771264538        2.5541136872       -5.4492597751
 H        -1.9527043185        1.8528459159       -3.7677950432
 H        -4.2449381622       -2.0061993974       -7.2340494697
 H        -4.0770432290       -0.4204503484       -8.1083495590
 H        -6.9967487844       -0.8868893929       -7.9323750191
 H        -6.2084290044       -2.4104827600       -8.3568064321
 H        -7.4226875151       -3.4095458946      -12.9980801268
 H        -8.2963824848       -1.9548587891      -13.0913720699
 H        -9.8983702898       -3.9915053376      -13.2013492389
 H       -10.1778210368       -3.0753048316      -11.6106030647
 H        -9.9270446643       -4.2204883076       -8.8054643456
 H        -8.3984863691       -4.9094073133       -8.9186946322
 H        -9.3741708371       -6.5907696516       -6.9975992361
 H       -10.6465252849       -5.3743087340       -6.8601787103
 H        -8.1765772793       -5.7436258289       -1.8358405104
 H        -9.7356418354       -5.6634886372       -2.2915098954
 H        -8.3926012382       -3.1900164860       -1.3947161843
 H        -8.7387171064       -4.2657311938       -0.2276079880
 H       -12.9266757383       -0.5553811380       -1.6379392130
 H       -11.9937728058       -1.5696401057       -2.8317174540
 H       -11.6476727425        1.3112615501       -2.3441858879
 H       -12.6457805511        0.6922479877       -3.6411518756
 H       -11.6526261848        1.9513403559       -7.2749703069
 H       -11.2908750230        0.6028275904       -8.1775272142
 H       -11.0816887833        2.7094255332       -9.3493767836
 H        -9.5954617978        1.6203240487       -9.4480996995
 H        -6.2837520057        3.5100951944       -8.0719396334
 H        -5.4794073125        4.4726818721       -9.3210931854
 H        -6.0519163494        2.7672705980       -9.5604834721
 H       -10.9581041575        4.7543118548       -9.5513609527
 H        -9.8192270679        4.5385420883      -10.9419214422
 H        -9.8500016545        6.0179774821      -10.1913380981
 H        -9.2772423330        5.8460769334       -7.2660333772
 H        -8.6639446923        6.6442363892       -8.6172479542
 H        -7.6254627882        5.7906855395       -7.5057853149
 H       -10.5104895509        3.4113521581       -5.5569168511
 H       -10.7195238807        2.9850490218       -3.8867547849
 H       -11.8726559382        2.4291960493       -5.0918232656
 H        -8.1807884544        2.3881379959       -5.1090721287
 H        -8.1734165859        0.6269010790       -4.5424631774
 H        -8.6896768216        1.9846516615       -3.4899918321
 H       -12.2395628561       -1.6445588278        1.3766489764
 H       -11.9505718040       -3.3713180247        1.0832172414
 H       -12.8294054128       -2.3105923271       -0.2358937571
 H        -8.7160840640       -2.4473318524        0.8821206686
 H       -10.0495829725       -2.0810074993        2.0068151464
 H        -9.3393104440       -0.8517915471        0.8405486906
 H        -8.3137707689       -7.3700271108       -5.3842863764
 H        -9.7980157476       -6.8156595303       -4.7942803863
 H        -8.5622168201       -7.3977288395       -3.6645415078
 H        -6.5378417225       -5.8091436722       -3.8509307412
 H        -6.3644620518       -4.4195108059       -4.9402913662
 H        -6.3312302000       -6.0995251788       -5.5506216531
 H       -11.6959438403       -4.8734063492      -11.6288208992
 H       -12.0789301754       -6.3453815113      -10.8252656677
 H       -11.5188727590       -6.2811968940      -12.5789230631
 H        -8.2797190719       -7.3924932761      -11.7030774551
 H        -9.5580443446       -7.3457390075      -12.8596539394
 H        -9.8681101029       -8.0508494606      -11.3388176061
 H        -5.5966915678       -1.1555171959      -13.1603364612
 H        -4.8059833382       -0.1854857448      -12.0576473486
 H        -6.4723143034        0.2174771199      -12.5781706137
 H        -4.0534448412       -2.2266089156      -11.1071250340
 H        -5.0276491719       -3.1860556222      -12.1425360670
 H        -5.2545166508       -3.4354960281      -10.3027198003
 H        -4.6741093937        2.4763013732       -4.2042034286
 H        -5.8915311059        1.2005523656       -4.2276764027
 H        -6.0545121286        2.4704265085       -5.3577537696
 H        -3.9251436894        2.9355615407       -6.8241096655
 H        -5.0066655802        1.8854391928       -7.7595106567
 H        -3.2180866328        1.4946821258       -7.4518036624
 H        -1.0539876102       -3.0341007666       -5.5654486728
 H        -1.0984777825       -2.0620999474       -4.1195301029
 H         0.1647749345       -3.1662598982       -4.3397570638
 H         1.4622606575       -0.9987734285       -3.9728149985
 H         2.1624725760       -0.1195628252       -5.5469092744
 H         2.3217581335       -1.8411412025       -5.0028636036
 H         2.6099910141        0.4376184406      -12.5302938221
 H         0.8869346566        0.3691515546      -12.4197954118
 H         1.7906549576       -0.2717635763      -13.9067059649
 H         0.4512024576       -3.2542498250      -12.4790688755
 H        -0.0786015957       -1.7740458378      -13.1678203446
 H        -0.2961788095       -1.9614579160      -11.4646955050
 H         8.3966641215       -4.3041078568      -15.9961767652
 H         7.0959278888       -5.1472478864      -15.3764366775
 H         7.8155480689       -3.7542687351      -14.4440876331
 H         8.1332213827       -1.8657666302      -16.6378736070
 H         7.1806297715       -1.2877108892      -15.2228392192
 H         6.6685009936       -1.0894368651      -16.7987984762
 H         3.3981794167       -3.9671850754      -21.3944479327
 H         4.7085603221       -5.1941820371      -21.8196914477
 H         4.1220422357       -4.3027965656      -23.0973570335
 H         6.7493357493       -1.7344050784      -22.5865684574
 H         5.4115516713       -2.0211689495      -23.6597453423
 H         6.5730297357       -3.2049004468      -23.3121943387
 H         4.7163052736        3.7021670354      -16.8481895063
 H         5.7203792593        2.4488521348      -16.5103032251
 H         3.9977898710        2.0940244765      -16.4841587899
 H         3.8045974178        4.2969480514      -18.6561369515
 H         2.4753893403        3.1505520998      -19.1937841701
 H         3.8790559475        3.6886264989      -20.2935911963
 Na       -8.2661569517       -1.6182838004       -5.3822657824
 Na        3.4256009981       -1.9923888711      -18.0605469923
