232

 C         6.7885051308        3.9671980054      -18.7596777839
 C         5.9966373526        2.8253469598      -19.2989680535
 O         6.1866355089        2.2938826793      -20.3688975127
 C         4.6966716136        2.5177451119      -18.5162965670
 C         4.3548646605        1.0161348800      -18.9177079724
 O         4.4455299118        0.1974676283      -17.9997845988
 C         3.9462399532        0.5807060254      -20.3009266343
 C         4.9006960499       -0.5418633317      -20.9417868132
 C         4.3821176481       -1.9576138525      -20.9567127626
 O         3.3158359940       -2.2893738187      -20.3560259309
 C         5.2372306977       -3.0465745097      -21.5559192479
 C         6.4413153045       -3.3398539175      -20.5077962886
 O         7.0880634578       -2.4006812524      -20.1455758050
 C         6.7249284389       -4.6428769106      -19.7907723964
 C         7.2558009588       -4.2690654356      -18.3652579977
 C         6.1095307934       -3.6496732509      -17.5171192679
 O         4.9948879832       -3.7282702581      -17.9108841878
 C         6.5616755125       -2.9808137167      -16.1391741549
 C         5.2329481204       -2.7575404395      -15.1803563907
 O         4.1657643528       -2.5212955333      -15.7769533252
 C         5.3752834222       -2.7084424451      -13.6021025860
 C         4.3460997006       -1.7277784713      -13.0445782575
 C         2.9198701625       -2.4877726247      -12.7922605156
 O         2.8955597609       -3.7108927479      -13.0275663887
 C         1.8289941093       -1.6871121733      -12.2050849749
 C         2.3419322163       -1.6410659728      -10.6546423951
 O         3.2922696359       -0.9519451629      -10.3649035009
 C         1.4347491608       -2.3499916189       -9.5376635218
 C         0.8656096790       -1.3681567709       -8.4551848342
 C         0.6895749448       -2.2069122293       -7.1561485919
 O         0.7933316613       -3.3971916703       -7.1633415515
 C         0.3228773590       -1.4692799544       -5.8304398480
 C        -0.5909122680       -0.1708536851       -6.0756798402
 O        -1.2789203431       -0.0823118993       -7.1064760513
 C        -0.5181628875        0.9402779976       -5.0316693208
 C        -1.8969011411        1.5823491161       -4.9363412858
 C        -3.1207508326        0.5529633076       -5.0222387675
 O        -3.0321612493       -0.5417058044       -4.4240444680
 C        -4.3270517774        0.9466274413       -5.8191648483
 C        -5.2743491273       -0.2327987266       -6.2086187235
 O        -6.3283363560       -0.5095311613       -5.5959150161
 C        -4.8317203942       -1.0602080311       -7.4575589483
 C        -5.9553410476       -1.5328646319       -8.3436717099
 C        -5.9537077968       -0.8067557682       -9.7246571902
 O        -5.5509686040        0.3723936512       -9.8183470566
 C        -6.1964981504       -1.6018691564      -11.0431868184
 C        -7.6500762293       -2.2158463426      -11.0807175070
 O        -8.2506103151       -2.3817974680      -10.0089849728
 C        -8.2810218989       -2.6230876876      -12.4371790839
 C        -9.3977113129       -3.6505485116      -12.3000973008
 C        -8.9206468744       -4.9068995588      -11.4433219897
 O        -7.7558267163       -5.0272339357      -11.0686142958
 C        -9.8991195486       -6.0997737629      -11.1683960229
 C        -9.8684652139       -6.3751446541       -9.5818540929
 O       -10.1718701600       -7.4835476418       -9.1865762028
 C        -9.4756499705       -5.2109340175       -8.5983014620
 C        -9.6497982677       -5.7121793295       -7.1506176135
 C        -8.8436130763       -4.7180227327       -6.1306319040
 O        -8.7074871422       -3.5251993827       -6.3956270378
 C        -8.2210937260       -5.3155940969       -4.8487477816
 C        -8.4752026412       -4.3781441038       -3.6015419316
 O        -8.2413042337       -3.2026594141       -3.6200238477
 C        -8.9006478691       -4.9044009215       -2.1799440269
 C        -9.0394742382       -3.9128183914       -1.0175418339
 C       -10.4317128268       -3.2030658953       -1.1169202761
 O       -11.2817549124       -3.7290675049       -1.7992986390
 C       -10.7317168732       -2.0195286656       -0.1768613000
 C       -10.8655254745       -0.7264539494       -1.0024871536
 O       -10.2846628649        0.2839218877       -0.6878597166
 C       -11.9284107953       -0.7158273855       -2.2208247120
 C       -11.7592314588        0.5433686640       -3.0481376930
 C       -10.6646731167        0.3046639632       -4.1794484563
 O       -10.1653666014       -0.8266923705       -4.1804978930
 C       -10.0751622869        1.4957510290       -4.9909812772
 C        -9.8882967879        1.0417405198       -6.5425034622
 O        -8.9140406696        0.3872406601       -6.8415086789
 C       -10.8723677555        1.4012538258       -7.6591398150
 C       -10.1183206615        2.1407779749       -8.8363197747
 C        -9.2173242398        3.2047525992       -8.2177238756
 O        -8.7243426465        3.0037759150       -7.1151257558
 C        -8.9384026491        4.6315561837       -9.0031292425
 C        -7.5260654016        4.1794326185       -9.8231557522
 O        -7.5198549003        4.2431816827      -11.0512733313
 C        -6.3423306509        3.8610835998       -9.0246318475
 C       -10.0775070785        5.1070254355       -9.9642441138
 C        -8.4818000536        5.7485271077       -8.0973174779
 C       -11.0305897525        2.7765768951       -4.9495012105
 C        -8.6170527671        1.7716288405       -4.3703865695
 C       -12.1005700172       -2.1926595873        0.6046124848
 C        -9.6333508283       -1.7596333183        1.0135314214
 C        -8.7982207586       -6.7813352960       -4.7366280598
 C        -6.6174274395       -5.3422558733       -4.8522731737
 C       -11.4031767836       -6.0042215834      -11.5720739041
 C        -9.2431345058       -7.3015249382      -11.9347230433
 C        -5.9795643941       -0.6700217325      -12.2170274146
 C        -5.1525958646       -2.7465331221      -11.0883186500
 C        -5.1250079233        1.8719828654       -4.7441448219
 C        -4.0841867847        1.8114152882       -7.1565335456
 C        -0.4722349583       -2.4348433732       -4.8580654205
 C         1.7063404811       -1.0492638475       -5.1571675970
 C         1.8747294448       -0.2418736598      -12.8291115848
 C         0.4598376658       -2.2553215452      -12.4731730005
 C         7.5114161841       -4.1479366926      -15.5198278577
 C         7.2157776638       -1.6234747875      -16.0763755631
 C         4.2051543421       -4.1210633989      -22.1285911507
 C         6.0915871393       -2.4906147915      -22.8312954878
 C         4.7059069881        2.5866293627      -17.0389282736
 C         3.6318428649        3.3335873041      -19.1980960140
 H         7.6474322970        4.0017952743      -19.4597428289
 H         7.0338675946        3.8737985478      -17.6921614216
 H         6.1730851831        4.9259864645      -18.7769246338
 H         4.0001328209        1.4865788712      -20.8679247975
 H         2.9467713820        0.0779311384      -20.2901341527
 H         5.9830219464       -0.5183636478      -20.5525396486
 H         5.0878889766       -0.3536163977      -21.9898037479
 H         7.4127028620       -5.3283387878      -20.2781288104
 H         5.7968005470       -5.2432002804      -19.7244902620
 H         8.0441300970       -3.6729359763      -18.4368107109
 H         7.6759209214       -5.1092107647      -17.7348000577
 H         6.3848615259       -2.3253571113      -13.3542832686
 H         5.2037568986       -3.7114945942      -13.2217962303
 H         4.1378386316       -0.8781803857      -13.6877732109
 H         4.5788484365       -1.3030727111      -12.0779007302
 H         2.2521085644       -2.9194286546       -9.0576013181
 H         0.8083774078       -3.0823490274      -10.0228749780
 H        -0.1578259841       -1.0511043953       -8.8814691815
 H         1.5168526099       -0.4652379157       -8.2808171983
 H         0.1582442027        1.6992450936       -5.3008599844
 H        -0.0956453336        0.5105587687       -4.1144196162
 H        -1.9971731410        2.2682791642       -5.7477044353
 H        -1.9048903411        2.1700260123       -3.9779806504
 H        -4.4088221944       -1.9760177409       -7.0396499276
 H        -4.0748484508       -0.5543687415       -8.0518626278
 H        -6.9340165916       -1.4469572354       -7.9745857478
 H        -5.7040763520       -2.5463059070       -8.5693394427
 H        -7.5735924213       -3.0271721533      -13.1935539304
 H        -8.6539174975       -1.6832051545      -12.9310555979
 H        -9.6451312958       -4.2328972700      -13.2267297985
 H       -10.3160227546       -3.1502926506      -11.9300367232
 H       -10.0002954449       -4.3218813574       -8.9162686758
 H        -8.4786538712       -4.8967128187       -8.9116729169
 H        -9.1524017722       -6.6748749110       -7.2040600049
 H       -10.7470027248       -5.8102246927       -6.9242685332
 H        -8.3553216403       -5.7609836874       -1.8062883340
 H        -9.8544253719       -5.4621865807       -2.2505204534
 H        -8.1521061812       -3.2328857388       -0.9763281827
 H        -8.9421978301       -4.3451006250       -0.0462029907
 H       -12.9335533462       -0.7295192411       -1.7098122855
 H       -11.8016770664       -1.5307209575       -2.9514927674
 H       -11.3941298178        1.2942011371       -2.4120864764
 H       -12.6380083889        0.8805226544       -3.5892119893
 H       -11.8296723824        1.9147138711       -7.4254619914
 H       -11.2328196112        0.3759655073       -8.0467588122
 H       -10.8378171594        2.5365317260       -9.5174841737
 H        -9.4496916758        1.3706817757       -9.3539787057
 H        -6.4416141370        3.7655608823       -7.9033531473
 H        -5.6400624508        4.6249662517       -9.2029746116
 H        -5.9671802089        2.8783096249       -9.2950887374
 H       -11.0590333822        4.8650564861       -9.6694736526
 H        -9.7328730481        4.5755495299      -10.9265333638
 H        -9.9543216830        6.1687880152      -10.1465669135
 H        -9.0853322182        5.9019879269       -7.1884754524
 H        -8.5528446225        6.7078368379       -8.5116973394
 H        -7.4680594226        5.6179356380       -7.6502939007
 H       -10.5707302973        3.4361246251       -5.6165109343
 H       -10.9992053444        3.1676869114       -3.9376216243
 H       -11.9810026643        2.4123274965       -5.3074630266
 H        -8.1374701715        2.5983611350       -4.8485324838
 H        -8.0606407821        0.8586213443       -4.4142742993
 H        -8.7132684275        2.0963477212       -3.2712255171
 H       -12.1896932443       -1.4173134610        1.4352041429
 H       -11.9111310449       -3.1746974030        1.0749213849
 H       -12.8352901237       -2.1443520565       -0.2178682799
 H        -8.5974178975       -1.8473392803        0.6898185858
 H        -9.8723983885       -2.4777823036        1.8347924384
 H        -9.6985903537       -0.6802550087        1.2734226469
 H        -8.4802925290       -7.5358991858       -5.4117309696
 H        -9.8922934626       -6.6716670899       -4.8383681279
 H        -8.6406312230       -7.2632782879       -3.7323077864
 H        -6.4251406342       -5.6252451345       -3.8626580851
 H        -6.2118763853       -4.3890686975       -5.0869782560
 H        -6.2341606069       -6.1927780674       -5.5261477258
 H       -11.8383205516       -5.0961970912      -11.2157700196
 H       -11.9591607571       -6.7834360881      -11.1419295521
 H       -11.4318133363       -5.9675150938      -12.6894998939
 H        -8.2071796208       -7.2754816794      -11.8493100366
 H        -9.4700350467       -7.2139029476      -12.9868380240
 H        -9.6687727887       -8.2356114753      -11.6241413855
 H        -5.7183446371       -1.2101467976      -13.1972845492
 H        -5.1630962414        0.0178158560      -12.0390575796
 H        -6.8505153300       -0.0663923719      -12.4203107490
 H        -4.1689447460       -2.1965072060      -11.1206565997
 H        -5.1321911880       -3.3624844156      -11.9594586636
 H        -5.2362433278       -3.3496332897      -10.1796015809
 H        -4.3696264297        2.3962356859       -4.2351358633
 H        -5.6854613772        1.2488942788       -4.0632257801
 H        -5.8107817002        2.5493123297       -5.1964680725
 H        -3.9792211060        2.8712182371       -6.9154447432
 H        -5.0794034041        1.7211771622       -7.5978344617
 H        -3.2192749278        1.5499726022       -7.8166669916
 H        -0.7800454454       -3.3843813512       -5.2971189653
 H        -1.3187021924       -1.9609801420       -4.6096153554
 H        -0.0822513071       -2.6504566881       -3.9062704512
 H         1.5846586758       -0.7054634215       -4.1195830361
 H         2.2552686040       -0.4373762312       -5.8036722691
 H         2.3797794414       -1.9149253569       -4.8711511959
 H         2.7841528131        0.2958216668      -12.6582062196
 H         1.0639826121        0.4363177628      -12.4666510194
 H         1.7566472014       -0.4541738548      -13.8285300385
 H         0.4902938405       -3.3329948080      -12.6628848943
 H         0.0778736751       -1.7742531497      -13.3906908609
 H        -0.2311898192       -2.0154553762      -11.6698220260
 H         8.5230343559       -4.1706846931      -15.9511335175
 H         7.0581960189       -5.1556979065      -15.7440296416
 H         7.6937527760       -3.8545710115      -14.4478829580
 H         8.0518910230       -1.4618775830      -16.7327544816
 H         7.3439777376       -1.3333110580      -15.0285425034
 H         6.5221332225       -0.8262147343      -16.4755234138
 H         3.3878577685       -4.1199280277      -21.4653394224
 H         4.7111163932       -5.0428368396      -22.1469302393
 H         3.9345374012       -4.0690447562      -23.2299470851
 H         6.8859859725       -1.7708642457      -22.5716414869
 H         5.5755532369       -2.0199965487      -23.7217018250
 H         6.6095842275       -3.2753159024      -23.3279783647
 H         4.8596727832        3.6147043317      -16.6322272516
 H         5.6558419670        2.2171942831      -16.6976136436
 H         3.9725424963        2.0157050290      -16.4547496174
 H         3.5391965115        4.4738753100      -18.9549064695
 H         2.6458187954        2.8876885028      -18.9335222252
 H         3.7732881392        3.2328023323      -20.3120704121
 Na       -8.3514256714       -1.5755387167       -5.2854028119
 Na        3.3273156963       -1.8996182077      -18.0198141861
