232

 C       -22.8078188540       -6.7398631596       -2.8454967861
 C       -21.4862350623       -5.9573370686       -3.1133262836
 O       -20.4428521229       -6.3998675000       -2.6436932052
 C       -21.4630219919       -4.6941939264       -4.0257349742
 C       -20.1166763644       -3.9185524731       -3.9079191249
 O       -19.7464535586       -3.5368835608       -2.8141045866
 C       -19.3563557281       -3.6925823753       -5.1461755597
 C       -18.1939853338       -2.7395659831       -4.9204980631
 C       -17.3160300880       -3.4326886057       -3.8407894448
 O       -17.2285022406       -4.6800511764       -3.8993394502
 C       -16.7129596241       -2.6228550564       -2.6419454604
 C       -16.3026708655       -3.6740912969       -1.5544051963
 O       -17.0427138405       -3.9999823678       -0.6235996238
 C       -14.8916275323       -4.3092903847       -1.7378345515
 C       -14.7356320197       -5.6352648097       -0.9966403722
 C       -15.1803938262       -6.8122873454       -1.8060640099
 O       -16.3605391948       -6.9782999556       -2.0952489321
 C       -14.1327919817       -7.9810234109       -2.0709932457
 C       -12.8514177357       -7.1057731929       -2.7017517048
 O       -13.0731596304       -6.0828019015       -3.2788027954
 C       -11.4427029928       -7.5892593223       -2.3488921896
 C       -11.0562013042       -8.9622593990       -2.8440669482
 C       -10.0214803518       -9.7849878658       -2.0892486106
 O       -10.3215642936      -10.2244702154       -0.9846246730
 C        -8.5415280576      -10.1160725984       -2.7568122343
 C        -8.0584536574       -8.8103371312       -3.4763349830
 O        -8.8105552773       -7.8652371321       -3.4607446050
 C        -6.7393957653       -8.6704696674       -4.1360438112
 C        -6.4930291143       -7.3140549168       -4.6396635013
 C        -6.2590540921       -7.2727751483       -6.1130880943
 O        -6.5454915741       -8.1440467678       -6.8712477317
 C        -5.7841413216       -5.8808039515       -6.6184907309
 C        -4.4073270238       -6.2111240410       -7.3936247317
 O        -3.4274296851       -6.5115708839       -6.7503569350
 C        -4.4876067035       -6.5313832951       -8.8529827414
 C        -4.4564447840       -5.1170875665       -9.6575915878
 C        -4.3657101868       -5.2675883502      -11.1586014256
 O        -3.6772210277       -6.1166534550      -11.6596066187
 C        -5.0723988560       -4.1845005160      -12.0720165540
 C        -4.3187702594       -2.8543424194      -11.6902596744
 O        -4.5170307040       -2.2938512774      -10.6366582933
 C        -3.2430151919       -2.3371960535      -12.6357035368
 C        -2.4969968494       -1.1191014327      -12.1714275681
 C        -1.0481724448       -1.2771473323      -12.6881277082
 O        -0.5676132123       -0.5453645445      -13.5301923111
 C        -0.1565045535       -2.5912163092      -12.2311069202
 C         1.4172994215       -2.1972432678      -12.2450350310
 O         2.2723688841       -2.9667979648      -12.6907058567
 C         1.9177031508       -0.9192851369      -11.4988310435
 C         3.1953290763       -0.4223398608      -11.9014517562
 C         3.8673069536        0.7175767568      -11.0499274672
 O         3.2340365181        1.2770573942      -10.1378272986
 C         5.3438861756        1.1628152327      -11.3360683240
 C         5.1991944007        2.2996152511      -12.3873706187
 O         5.7542578648        2.1987315540      -13.4678934494
 C         4.3701737167        3.5978360370      -12.0004595534
 C         5.2520179812        4.8766553119      -11.7644926378
 C         5.7294958435        5.6465645901      -13.0240528464
 O         5.3824842268        5.4729691510      -14.1589894588
 C         6.8725716054        6.8187605487      -12.6024622130
 C         7.3879818721        7.3095402460      -13.8832982127
 O         6.8905532332        8.2482646753      -14.5041612424
 C         8.3783695527        6.3630286985      -14.5701374850
 C         8.4965044174        6.6578613123      -16.0900688124
 C         7.2637636369        6.0901083241      -16.9001468823
 O         6.7383666274        5.0157835092      -16.7177964076
 C         6.7945869965        6.9237166388      -18.2148235158
 C         8.0522766687        6.7808618725      -19.2326767192
 O         9.0674700106        7.2879847169      -18.9870679798
 C         7.9035967891        5.8145343250      -20.5769907221
 C         9.1674498424        5.0183059246      -20.8748177533
 C         9.4388618667        3.9950258007      -19.8123066162
 O         9.5496340861        4.3297149199      -18.6203865596
 C         9.8029754301        2.4401941580      -20.2592644595
 C         9.0480981098        1.4908032931      -19.3519907164
 O         8.1529502219        0.8143104317      -19.8525906761
 C         9.3997013427        1.2848169991      -17.8133201720
 C         8.4703856303        0.3306180233      -16.9651594345
 C         7.2298030335        1.1096340617      -16.5722568270
 O         7.3746033355        2.1245033298      -15.9273584274
 C         5.8289122097        0.7027798197      -17.0956627686
 C         5.1208576568        1.8745488679      -17.8437854935
 O         4.4920880505        2.6859665614      -17.2145163647
 C         5.2411734950        2.0257020197      -19.2943794806
 C         5.9334371406       -0.5926046600      -17.8381812184
 C         4.8842253580        0.3890465316      -15.8468313023
 C         9.4321896177        2.1475768806      -21.7897783984
 C        11.3884420400        2.3403404497      -19.9474218345
 C         5.4616468648        6.3940071580      -18.6749489844
 C         6.7078941414        8.4030726856      -17.9252124910
 C         6.0447724549        7.9717952204      -11.8826022640
 C         8.0055441615        6.3258805516      -11.6404234540
 C         5.9917506655        1.5567991657      -10.0151125168
 C         6.1747050705        0.0428918173      -11.9038629786
 C        -0.4647253798       -3.1053992761      -10.7762001040
 C        -0.2899062448       -3.6728569436      -13.2530313656
 C        -4.9747806772       -4.6611959792      -13.5397856066
 C        -6.5291626604       -3.8395989716      -11.7356519331
 C        -6.9350244377       -5.2763849798       -7.4617147673
 C        -5.3884820513       -4.9195650262       -5.3989864385
 C        -7.5897348589      -10.4572400593       -1.6024794501
 C        -8.6141033186      -11.3214389209       -3.8330482476
 C       -13.8599826301       -8.6981138709       -0.7468027082
 C       -14.6821469195       -8.9414706903       -3.2830024698
 C       -15.4762617178       -1.8524264794       -3.1359815399
 C       -17.6422421881       -1.4963796203       -2.0306823646
 C       -21.6135434672       -5.1951075388       -5.4929216993
 C       -22.5672672259       -3.7295135732       -3.6702859920
 H       -22.9556990068       -6.7170416923       -1.7816297238
 H       -22.8034035859       -7.8273666008       -3.2144944543
 H       -23.5797970430       -6.1103604122       -3.3748880359
 H       -20.0138082704       -3.1987790755       -5.9037899485
 H       -19.0207863416       -4.7237235430       -5.4314714985
 H       -18.4928057359       -1.6904342165       -4.6661332731
 H       -17.5738286583       -2.6557223710       -5.8538193258
 H       -14.2130588395       -3.5266977510       -1.3413161538
 H       -14.7227905741       -4.3925274749       -2.8052645968
 H       -15.4124431410       -5.6034316646       -0.1239928693
 H       -13.7281582785       -5.7152843098       -0.6897797104
 H       -11.3348279421       -7.6460500714       -1.2056048361
 H       -10.6780141253       -6.9510279439       -2.7770225777
 H       -10.7834500135       -8.7254462075       -3.8320119528
 H       -11.9743934326       -9.6269578759       -2.7803566791
 H        -6.4349282975       -9.3674646012       -4.8386508080
 H        -6.0962533505       -8.7886350724       -3.2782326849
 H        -5.7063978126       -6.7940210704       -4.1236750157
 H        -7.4077375589       -6.7775624861       -4.4206795178
 H        -5.3684930604       -7.0044178763       -9.0334058827
 H        -3.5972247030       -7.0326091411       -9.2587928979
 H        -3.6191088341       -4.6488160953       -9.2663226834
 H        -5.3256311320       -4.4800333604       -9.4477012363
 H        -3.8569019942       -2.0970620612      -13.4776801309
 H        -2.6211834544       -3.1046412507      -12.8022714717
 H        -2.4851112073       -0.8613946363      -11.1133949779
 H        -2.8794810608       -0.2712742859      -12.6645497732
 H         1.9359424925       -1.3726154849      -10.4887595994
 H         1.2183020778       -0.1376655917      -11.4375671579
 H         3.1696501010       -0.1718017028      -13.0112523128
 H         3.9886472102       -1.2103891176      -11.8550043456
 H         3.7340577356        3.5892008858      -11.1828496360
 H         3.7039611721        3.9762328482      -12.7255521200
 H         6.0744704650        4.6659116104      -11.0889067692
 H         4.5671699371        5.5452421588      -11.1959267241
 H         8.1143458423        5.2871041047      -14.4252967428
 H         9.3973866284        6.4700364954      -14.1285379024
 H         9.2704871935        6.0974060126      -16.4404216987
 H         8.6197871129        7.7036219137      -16.3559621542
 H         7.6840033665        6.4993285041      -21.3963753700
 H         7.0986857284        5.1432627791      -20.6233994458
 H        10.0516659654        5.7777810370      -20.8271790040
 H         9.0462377948        4.6934558742      -21.8756778579
 H         9.2356491486        2.2465818237      -17.2046313964
 H        10.5250894990        1.0962450710      -17.6972302387
 H         9.0837271482        0.0409443199      -16.1279697549
 H         8.3923286001       -0.5715892125      -17.5523051308
 H         6.2032506559        1.6894371380      -19.5249938278
 H         5.0121027582        3.0585722304      -19.5971663385
 H         4.5551582070        1.3750303574      -19.8031276893
 H         4.9195092141       -0.9598751800      -18.1133414825
 H         6.4160236986       -1.3129753493      -17.1643859377
 H         6.6057336825       -0.4887524047      -18.7300788318
 H         4.0431101969       -0.0576586434      -16.2989764429
 H         4.5534674764        1.3953541965      -15.5485894151
 H         5.3261281036       -0.2694036755      -14.9989200950
 H         9.4742959527        1.0823795435      -21.9735607269
 H        10.2106120320        2.7027316396      -22.3886037556
 H         8.4668627040        2.5071062538      -22.1132420404
 H        11.8333420060        1.4083502517      -20.2965432408
 H        11.6538756427        2.4696787719      -18.8975445962
 H        11.9114039742        3.1634151952      -20.4462746649
 H         4.7116348639        7.0675729605      -18.2879402078
 H         5.2832747482        5.3790659508      -18.2831972983
 H         5.1712349490        6.4481364485      -19.7628280217
 H         7.6753187004        8.9071711787      -17.6075704707
 H         6.0720503526        8.6752091835      -17.0950312684
 H         6.3927581824        8.9290501150      -18.8105429496
 H         6.6008459763        8.8562710032      -11.9025940284
 H         5.8701397260        7.6808631398      -10.8339352439
 H         5.0239773190        8.1090420808      -12.2735632042
 H         7.5545840259        6.2637240187      -10.6518911669
 H         8.9702243840        6.9780870111      -11.6318942394
 H         8.3508499084        5.2971144492      -11.8274250401
 H         6.7474714378        2.3035950679      -10.0335808109
 H         6.4728445701        0.7672601868       -9.5574456781
 H         5.2129258116        1.7993519735       -9.2563230185
 H         5.9291171914       -0.9878928451      -11.6492099955
 H         7.1675793019        0.3044285573      -11.5147947891
 H         6.0972524633        0.0661076665      -13.0664131219
 H        -0.7973808598       -2.3463943354      -10.0413157884
 H         0.4049585751       -3.5387183467      -10.2363325182
 H        -1.1067529199       -3.9828787153      -10.8103397027
 H        -0.8800092857       -4.5581406575      -12.9911768351
 H         0.6866627046       -4.1379078182      -13.4528964529
 H        -0.6954815339       -3.2520863214      -14.1535051853
 H        -5.7542344794       -4.2440403053      -14.1540146168
 H        -4.8959554005       -5.7551873422      -13.5972058827
 H        -4.1166394932       -4.2175026420      -13.9255988667
 H        -6.7467519849       -3.1877693078      -12.5841060765
 H        -6.6249198480       -3.2389502245      -10.8545890066
 H        -7.3430212842       -4.5593390692      -11.6393445987
 H        -7.1646384641       -5.7615986781       -8.3345497835
 H        -6.8685292088       -4.1526296065       -7.5680758916
 H        -7.8443218618       -5.3917252349       -6.9165505225
 H        -6.0732532953       -4.6985562396       -4.5678331718
 H        -5.0756174686       -3.9516095171       -5.8368974750
 H        -4.4604883139       -5.2409354259       -4.9981000561
 H        -8.2328639620      -11.2114696533       -1.0491449206
 H        -7.2016826350       -9.5692933189       -1.0898980021
 H        -6.7426326730      -11.0134822993       -1.9585532036
 H        -8.9272489669      -12.2644261237       -3.4221042912
 H        -7.6765605575      -11.4346677462       -4.3536885126
 H        -9.2483219662      -10.8754723225       -4.6201780813
 H       -14.2449835314       -8.0639855462        0.0887809335
 H       -12.8225436931       -8.8717900775       -0.4524958593
 H       -14.5096146967       -9.6261923836       -0.7703129590
 H       -15.2557395536       -8.3336212062       -4.0072756779
 H       -15.3695318396       -9.6894703381       -2.7766426487
 H       -13.7438361209       -9.4926050175       -3.6289060924
 H       -14.8044718484       -2.3458270175       -3.7573321641
 H       -14.8520591055       -1.5321613325       -2.2809058504
 H       -15.6522563737       -0.8335943610       -3.6185809743
 H       -18.3156985434       -1.9486880711       -1.3988327680
 H       -18.1300775313       -0.8771138280       -2.8046611654
 H       -17.0309616850       -0.6178365032       -1.6447541681
 H       -20.7990037713       -5.8783355343       -5.6080418592
 H       -21.7421974333       -4.4033593388       -6.2680955974
 H       -22.5659984340       -5.8015707218       -5.5007546503
 H       -22.6745930019       -2.9983583832       -4.4233253768
 H       -22.2073866783       -3.2513787171       -2.7383414828
 H       -23.5030972917       -4.2777655057       -3.4230346952
 Na      -18.2370161721       -5.6141064371       -2.1112875086
 Na        5.8700376367        3.5062560901      -15.5421887907
