232

 C         6.7397893305        4.0747085394      -18.7619792428
 C         5.8140179882        2.9049696915      -19.2518461069
 O         6.1281858963        2.3049639600      -20.2349211813
 C         4.4952299928        2.5534358450      -18.4443531148
 C         4.1670183404        1.0961413872      -18.7901436308
 O         4.2828354017        0.1974617299      -17.9413455053
 C         3.7365365140        0.5926507645      -20.2192381427
 C         4.7804902171       -0.3469426015      -20.9168797063
 C         4.3599044801       -1.8627031785      -20.8875705426
 O         3.3652745926       -2.2985039090      -20.2817270692
 C         5.3789721906       -2.8652349992      -21.5773593862
 C         6.4744674135       -3.0996226014      -20.5198161205
 O         7.0528662415       -2.1584858549      -20.0629002630
 C         6.7398985646       -4.4915473150      -19.9902298953
 C         7.2178624723       -4.3553826984      -18.4830776943
 C         6.1028254407       -3.5825508657      -17.6335913801
 O         5.1067582603       -3.3594324804      -18.2353891572
 C         6.4901602138       -2.9917004447      -16.2481430307
 C         5.2482160426       -2.7365858155      -15.3530697039
 O         4.1775272803       -2.3564819706      -15.8680237710
 C         5.2483936119       -2.8941868614      -13.8380854393
 C         4.3161428665       -1.8792320958      -13.1664889661
 C         2.8982027778       -2.6381281940      -12.8873886396
 O         2.8000850961       -3.8187616315      -13.0483743229
 C         1.7831498592       -1.7304174902      -12.1660187602
 C         2.4324050125       -1.6686839322      -10.7193084199
 O         3.3785883836       -0.9329671700      -10.4437327926
 C         1.7968116502       -2.5742130210       -9.6458173937
 C         1.0460281574       -1.7096710025       -8.6525012715
 C         0.5527562727       -2.3672490584       -7.3490577362
 O         0.3538758249       -3.5499701248       -7.3862953390
 C         0.4488921583       -1.5056287692       -6.0675856410
 C        -0.3884606918       -0.2133194663       -6.2595238687
 O        -1.0518819384        0.0815214919       -7.2421213242
 C        -0.3499284112        0.8192020407       -5.0852008009
 C        -1.7107206788        1.5086399836       -5.0687571190
 C        -3.0158201327        0.6121674798       -5.0346115426
 O        -2.9100617041       -0.4612706035       -4.4227112825
 C        -4.2557603850        0.9519305354       -5.7740895714
 C        -5.2503641016       -0.3182422160       -6.0894352740
 O        -6.2091031935       -0.3917035953       -5.3286704268
 C        -4.8392595700       -1.3473489466       -7.1794746009
 C        -6.0674799843       -1.7726293912       -8.1050116248
 C        -6.0554898352       -1.0020538452       -9.5132023573
 O        -5.9129354446        0.2168378664       -9.5402498760
 C        -6.3787877885       -1.6804855627      -10.8694902803
 C        -7.8564691804       -2.2494668173      -10.7711456823
 O        -8.3616171732       -2.4570785197       -9.6696389347
 C        -8.5381310484       -2.5256405149      -12.1411258292
 C        -9.5010462535       -3.7468210654      -12.1423341330
 C        -8.7570195885       -4.9932200311      -11.4029944979
 O        -7.6077838633       -4.8535088242      -11.0455351247
 C        -9.6488109043       -6.2222202548      -11.1326875074
 C        -9.7540289653       -6.5104376023       -9.6407642158
 O        -9.8832223535       -7.6767569001       -9.3192420656
 C        -9.6687600612       -5.3847921297       -8.5426725828
 C        -9.3814059388       -5.9354568605       -7.1203522337
 C        -8.8015696457       -4.8206841452       -6.1442107103
 O        -8.4828656040       -3.7598086947       -6.5890691215
 C        -8.1764331025       -5.2570841872       -4.7350582555
 C        -8.5046473780       -4.2530503163       -3.5999201763
 O        -8.5040486503       -3.0535062205       -3.7779147025
 C        -8.7947057515       -4.8126265985       -2.2451229413
 C        -8.9918316331       -3.7642155329       -1.1575773875
 C       -10.3430099227       -3.0365904054       -1.2087941809
 O       -11.2515922083       -3.4069929517       -1.9056520221
 C       -10.5067726534       -1.8748449982       -0.2414142799
 C       -10.8739892694       -0.5504967009       -0.9359207587
 O       -10.3201808258        0.4930356868       -0.6172435150
 C       -11.9314449265       -0.6013564796       -2.1299985271
 C       -11.7214527403        0.6774155052       -2.9713414796
 C       -10.6390648596        0.3955038979       -4.1276215697
 O       -10.2738880632       -0.6977102058       -4.3279253079
 C       -10.1102628813        1.7201491319       -4.9670370329
 C        -9.8471748133        1.1230512720       -6.4423552256
 O        -8.9976023593        0.1773264940       -6.6222880861
 C       -10.7795832049        1.4067100768       -7.6170675041
 C        -9.9803732934        2.1447430508       -8.6849419251
 C        -9.2118439440        3.3574874625       -8.0203259899
 O        -8.7906403128        3.1502912079       -6.9192821686
 C        -8.8802541559        4.5537553624       -8.9035988760
 C        -7.5907024169        4.0763615410       -9.8345674457
 O        -7.7364171637        3.6687927879      -10.9749387637
 C        -6.2515557630        3.9435499212       -9.1157881774
 C        -9.9829670188        4.9176262604      -10.0239530906
 C        -8.7321518864        5.6960792261       -7.9710358680
 C       -11.2934843233        2.8417788486       -4.9857411233
 C        -8.7715725341        2.1780851510       -4.2314267089
 C       -11.9450910367       -2.2775189680        0.4532514733
 C        -9.5488719115       -1.6941533886        0.8984869148
 C        -8.6098881166       -6.7206728887       -4.4025886403
 C        -6.7283652874       -5.2577670244       -5.1265888397
 C       -11.1723796466       -5.9844819304      -11.5924007339
 C        -9.0823598775       -7.3994373225      -11.8854063053
 C        -6.2274416779       -0.6368634416      -11.9682099348
 C        -5.5060319160       -2.8679400706      -11.3358689649
 C        -5.0732404619        1.9479892886       -4.8805250824
 C        -4.0367451551        1.5827926331       -7.2106733586
 C        -0.3207624567       -2.3372782092       -4.9951039620
 C         1.8263882182       -1.1783471691       -5.5764738524
 C         1.7541450722       -0.3364113127      -12.7616500138
 C         0.4236040530       -2.3882311239      -12.2872086992
 C         7.5495991794       -3.8377921610      -15.5033876953
 C         7.0678757034       -1.6176391594      -16.7397611965
 C         4.6145505639       -4.2550311346      -21.7750926496
 C         5.9605665812       -2.3380093193      -22.9476217196
 C         4.6922864833        2.7426272963      -16.8742691868
 C         3.2868800637        3.3207409354      -18.8680952342
 H         6.6211020541        4.7786754529      -19.5211027450
 H         7.7531721275        3.9236384972      -18.5892015369
 H         6.3181988960        4.4474566407      -17.8093315684
 H         3.6575509038        1.4608809641      -20.8812311393
 H         2.7875004385        0.0989315956      -19.9679718285
 H         5.7633357718       -0.2500579376      -20.4423609676
 H         4.9684982212       -0.0067961065      -21.9201162963
 H         7.5357495444       -5.0396916430      -20.5687785134
 H         5.8442165495       -5.1356284958      -19.9982727940
 H         8.0505951509       -3.8608988577      -18.3546530225
 H         7.4661230228       -5.3811050968      -18.0151514253
 H         6.2587634408       -2.6091881433      -13.4266614605
 H         4.9042043614       -3.9385887215      -13.6672827741
 H         4.2192277802       -0.9651000801      -13.7672100004
 H         4.6031691066       -1.6320500386      -12.1347326192
 H         2.6364636011       -3.0953048992       -9.1398655526
 H         1.1926775681       -3.3755620772      -10.0983411182
 H         0.1577477691       -1.3595373236       -9.0917435793
 H         1.6273377700       -0.8763178494       -8.3382405238
 H         0.4859865988        1.4607649972       -5.4509976147
 H        -0.0802608199        0.3473967019       -4.0891569418
 H        -1.7399068080        2.2512245492       -5.8769215413
 H        -1.9061642799        2.1503668401       -4.1637545803
 H        -4.7874554875       -2.2068450252       -6.4431434121
 H        -3.8892180638       -1.1119797792       -7.6812419397
 H        -7.0044311603       -1.5901870899       -7.5167061781
 H        -5.9493773532       -2.7725067894       -8.4715679764
 H        -7.8747532333       -2.6944686220      -12.9462036745
 H        -9.1863399773       -1.6939785151      -12.4236703703
 H        -9.7976455743       -4.0447497628      -13.1459831530
 H       -10.5092503897       -3.4597898514      -11.7066507372
 H       -10.4750383294       -4.6568744761       -8.6506457716
 H        -8.8634813013       -4.7067482702       -8.8958252392
 H        -8.6643202077       -6.6806509127       -7.2494987059
 H       -10.3166245532       -6.3097312209       -6.6705533851
 H        -8.0310966773       -5.6310490381       -1.9814405501
 H        -9.5893868400       -5.4922148707       -2.2701171215
 H        -8.2060564627       -3.0329127359       -1.1003725993
 H        -8.9384493686       -4.1231890599       -0.1401148430
 H       -12.9726721430       -0.4900738095       -1.7872212576
 H       -11.8785892539       -1.4487221736       -2.7649320785
 H       -11.3852222537        1.5641240091       -2.4137467190
 H       -12.6919793576        0.8970663483       -3.4559598125
 H       -11.5956433746        1.9514908043       -7.3141521264
 H       -11.1388727861        0.4833564852       -7.9675388709
 H       -10.6595914258        2.3534843081       -9.5146293448
 H        -9.2305811123        1.3292956107       -8.9662030319
 H        -6.4296572413        3.3078783856       -8.2121445469
 H        -6.0266105202        4.8435609816       -8.5710179789
 H        -5.3985646142        3.5150958391       -9.6903826473
 H       -10.8862236611        5.2053110254       -9.4999476774
 H       -10.1325281623        3.9692167354      -10.5411455792
 H        -9.7072640277        5.7104774496      -10.6456514379
 H        -9.6667609362        6.2293835896       -7.8267962549
 H        -8.1872144054        6.5078310984       -8.4319533535
 H        -8.1946213104        5.4714059771       -7.0208337638
 H       -11.0295793226        3.5806905738       -5.7380407371
 H       -11.3424641811        3.2004739269       -3.9578120601
 H       -12.1919262777        2.2955759021       -5.1570299082
 H        -8.3902635976        3.1273763468       -4.5764679922
 H        -8.0395585685        1.4162061699       -4.3823189589
 H        -8.9512160599        2.3114577124       -3.1440931061
 H       -12.3777618957       -1.3527280427        0.6597394249
 H       -11.6131965477       -2.7246235088        1.3712824713
 H       -12.4863286845       -2.9196545811       -0.1875942633
 H        -9.3411326703       -0.6752286905        0.9588731792
 H        -8.6914241280       -2.3489796435        0.8060216982
 H       -10.0387167030       -1.9091676490        1.8347839470
 H        -8.5101915485       -7.2300250672       -5.3385598392
 H        -9.6180088582       -6.9542455385       -4.1365752018
 H        -8.0074150744       -7.3433703226       -3.6771717827
 H        -6.2464037605       -5.8084460108       -4.3407930515
 H        -6.3229658292       -4.2656959799       -5.1959902425
 H        -6.6691163615       -5.8453295145       -6.0851657589
 H       -11.6935251373       -5.3303026212      -10.8754058573
 H       -11.6980427693       -6.9403745001      -11.6877764171
 H       -11.1293247220       -5.5973412572      -12.6520302986
 H        -8.0508989170       -7.6388479924      -11.5957544722
 H        -9.0838674177       -7.1916021582      -12.9837665913
 H        -9.7752993265       -8.2556725524      -11.7522467595
 H        -6.4612321294       -1.0882696708      -12.9223062148
 H        -5.2694588768       -0.1216962951      -11.9425417391
 H        -6.9101533922        0.2022019350      -11.8722101896
 H        -4.3678304026       -2.6624577840      -11.3686114391
 H        -5.8006688757       -3.1982473407      -12.2829478623
 H        -5.6731943512       -3.7967469643      -10.7288357129
 H        -4.8302905400        3.0331460444       -5.0095569648
 H        -5.1391681228        1.5475109914       -3.8521909176
 H        -6.1064653001        1.8203803073       -5.2853525973
 H        -3.9227394249        2.5945358971       -7.0739376730
 H        -4.9769312457        1.5085141116       -7.7592257602
 H        -3.1765079217        1.1440198314       -7.7554250880
 H         0.3655338676       -2.7504461063       -4.1378315469
 H        -0.7982738808       -3.2121993220       -5.4031450469
 H        -1.1958751496       -1.7707977440       -4.5237169145
 H         1.6663570119       -0.5249586434       -4.6887929972
 H         2.5444548496       -0.6918710304       -6.2670676369
 H         2.4725533169       -2.0500458885       -5.2819854981
 H         2.5248188613        0.2504068064      -12.3190217399
 H         0.7706720208        0.1253881398      -12.2788997394
 H         1.6547422826       -0.2384718833      -13.8529599330
 H         0.2493459462       -3.2219825006      -11.6348882503
 H         0.3951064368       -2.7889384205      -13.2769530400
 H        -0.3996230723       -1.6667300339      -12.1456465446
 H         8.1825917996       -4.3130135862      -16.1628988712
 H         7.0467876736       -4.5538164091      -14.9349174885
 H         8.1932090148       -3.1991356030      -14.9046170343
 H         7.8246338344       -1.7910165709      -17.5094037119
 H         7.5626843475       -1.1347095476      -15.9551879083
 H         6.3628966745       -0.9153704122      -17.2359895708
 H         4.2375535089       -4.7064014348      -20.8346508762
 H         5.0800099365       -4.9622430996      -22.4517967744
 H         3.6879730437       -3.8416949510      -22.3492701679
 H         6.4443053148       -1.3847035672      -22.9243867793
 H         5.1937917018       -2.2651516333      -23.7668731374
 H         6.5888563238       -3.0059695962      -23.4035153926
 H         4.8437546060        3.7163618311      -16.4005249186
 H         5.4355950802        2.0976356772      -16.4218101380
 H         3.7727902712        2.3380212345      -16.4295807858
 H         3.4610123963        4.4229193764      -18.8998167673
 H         2.4203005081        3.2560357070      -18.2902652778
 H         3.0591699189        2.9762208913      -19.8322453749
 Na       -8.1028248559       -1.7254210702       -5.5220226087
 Na        3.4668000845       -1.9592824564      -17.9820019630
