232

 C         6.6588686186        4.1872721619      -18.8078292667
 C         5.7472411046        2.9737388086      -19.2079391678
 O         5.9940280757        2.2681924502      -20.1729555680
 C         4.4570696758        2.5415431513      -18.4399064306
 C         4.2427026312        1.0389094786      -18.8180667241
 O         4.1906232413        0.2466963315      -17.8757376010
 C         3.6588429849        0.6234754133      -20.1989264598
 C         4.6996718851       -0.3467644986      -20.8461959136
 C         4.3771420509       -1.8192044542      -20.8665622051
 O         3.3787782049       -2.3498550215      -20.2868165557
 C         5.3002099081       -2.7571356044      -21.5774606584
 C         6.5921351093       -3.0340875831      -20.4079479393
 O         7.1935842280       -2.0611683093      -20.0440831768
 C         6.9554249969       -4.4735251513      -19.9364826653
 C         7.2374937610       -4.4998580330      -18.4502503013
 C         6.1242972256       -3.6456773408      -17.7622485483
 O         5.1514783086       -3.4109329587      -18.4179210752
 C         6.4735210661       -3.0254417924      -16.3586542631
 C         5.2999198838       -2.7103010238      -15.3857020730
 O         4.2250958249       -2.2687306337      -15.8076526405
 C         5.3684289333       -2.9209402427      -13.8203866812
 C         4.3208617714       -1.9289700576      -13.1232274104
 C         2.9116739759       -2.6108521278      -12.7922392589
 O         2.7700104441       -3.7979403538      -13.1363876693
 C         1.7561823131       -1.7600762751      -12.1307337505
 C         2.3874594338       -1.7426979506      -10.6868815776
 O         3.2796606711       -0.9648558752      -10.4417285985
 C         1.9646644838       -2.6931864984       -9.5892426018
 C         1.1666421965       -1.7692883129       -8.7238333615
 C         0.5247559834       -2.4843131001       -7.4847561238
 O         0.1536626994       -3.6096872209       -7.4524757484
 C         0.5311434923       -1.5447549492       -6.0963663330
 C        -0.2990656071       -0.1490382708       -6.2783412116
 O        -0.9525760751        0.0124839862       -7.3069492553
 C        -0.3764140105        0.8577014694       -5.0975211429
 C        -1.6862084153        1.5617632164       -4.9960171592
 C        -2.9362130607        0.5512758093       -5.1044005691
 O        -2.9055938288       -0.4668329755       -4.4599965970
 C        -4.3556184425        0.9844185389       -5.9332875496
 C        -5.1466671020       -0.3194171178       -6.0429122245
 O        -6.1294601443       -0.4922537136       -5.2979552707
 C        -4.8858275775       -1.3951047737       -7.1163609625
 C        -6.0751912225       -1.8530387347       -8.0745874684
 C        -6.0286464644       -1.0574365199       -9.4311708987
 O        -5.9238513219        0.1672850891       -9.3068758723
 C        -6.4354769647       -1.7098160311      -10.7717594683
 C        -7.8966492380       -2.2031358152      -10.7318541116
 O        -8.4771744908       -2.4107919147       -9.6511904036
 C        -8.5138387328       -2.4524356123      -12.0363370854
 C        -9.4686108127       -3.6409259939      -11.9338097534
 C        -8.8490618971       -4.8947363515      -11.4245055875
 O        -7.6540813227       -5.0003675956      -11.1634716282
 C        -9.7120222729       -6.2015677388      -11.1520467172
 C        -9.7024001917       -6.5947412370       -9.5406014580
 O        -9.7403244032       -7.7316691008       -9.1764123450
 C        -9.6622614362       -5.4510145967       -8.5667410514
 C        -9.3493584312       -5.9514592074       -7.1390396134
 C        -8.6812629922       -4.9275177742       -6.2001965864
 O        -8.6822328105       -3.7584592585       -6.6359769444
 C        -8.1372208660       -5.3496376322       -4.8802113097
 C        -8.5136961949       -4.2368211624       -3.6432616257
 O        -8.5077212754       -3.0384993733       -3.8386446787
 C        -8.8167481256       -4.7673791280       -2.2207837806
 C        -8.8915581364       -3.6898710359       -1.1635560742
 C       -10.3308622809       -2.9639575292       -1.2049124752
 O       -11.1287299626       -3.3628765180       -2.0706540643
 C       -10.6712164222       -1.8710547632       -0.1178465540
 C       -10.8367841308       -0.5265743956       -0.9972588929
 O       -10.2745053956        0.4952676003       -0.6663929964
 C       -11.8878868486       -0.5030530208       -2.0852233542
 C       -11.7448001648        0.7172249558       -2.9904140989
 C       -10.7036903865        0.4586774061       -4.0770204314
 O       -10.2672796069       -0.6988969935       -4.2786776167
 C       -10.2604990045        1.6072683497       -4.9102458671
 C        -9.9724949701        1.0746036166       -6.3363342722
 O        -8.9940018188        0.3465599930       -6.5250123954
 C       -10.8722311802        1.3497216593       -7.5621363815
 C        -9.9852991983        2.0851268555       -8.6667126067
 C        -9.2486900014        3.3296873679       -8.0651765221
 O        -8.7618958052        3.2540430321       -6.9408708494
 C        -8.8443445145        4.5355159212       -8.9204071650
 C        -7.6215174999        4.0034965470       -9.7055251831
 O        -7.8193265871        3.5982107541      -10.8483649561
 C        -6.2345608957        4.0484626819       -9.1704857417
 C        -9.9490306995        4.8284858898      -10.0171554184
 C        -8.6158113125        5.8625506924       -8.1348680420
 C       -11.2018492543        2.7850794486       -4.9862910443
 C        -8.9732752672        2.0696279931       -4.3293894274
 C       -12.0227767274       -2.3174844858        0.5525745674
 C        -9.4645476741       -1.6405497776        0.8313802002
 C        -8.6272971845       -6.7346291871       -4.3718310050
 C        -6.5481170072       -5.1945477451       -4.9981798750
 C       -11.1646456867       -6.1430643589      -11.5864458319
 C        -8.9904660948       -7.3872627796      -11.8753308532
 C        -6.2982743847       -0.4541272898      -11.7964173980
 C        -5.4830225313       -2.8718148064      -11.1502509302
 C        -5.1209262476        2.0406473981       -5.0092536485
 C        -4.0686428842        1.6004718434       -7.3366885221
 C        -0.2452801941       -2.4177299610       -5.0635616204
 C         1.9225270125       -1.2211211363       -5.6803331726
 C         1.7168297777       -0.3651368153      -12.8603200925
 C         0.3479548961       -2.3997403115      -12.1886675549
 C         7.6312898079       -3.7849533621      -15.6307854591
 C         6.9628308163       -1.6018619658      -16.8622327110
 C         4.5018573703       -4.0622767942      -21.8022082585
 C         5.8237719998       -2.2877731913      -22.9025396388
 C         4.6726909592        2.5904157177      -16.8760365726
 C         3.2886980268        3.4642780998      -18.8567505693
 H         6.6185474818        5.0636424733      -19.4948641016
 H         7.6700283615        3.8392525493      -18.8642575947
 H         6.4753787481        4.3915976308      -17.7969201332
 H         3.6657665570        1.4738105941      -20.8363232744
 H         2.6716086348        0.2083794426      -19.9600924759
 H         5.8005663183       -0.1913259993      -20.6009908560
 H         4.6499737951       -0.0862487329      -21.8850969646
 H         7.8798292746       -4.7478472086      -20.4620616857
 H         6.1820213054       -5.2412338719      -20.1428674836
 H         8.1974714988       -3.9787652591      -18.1126671714
 H         7.3359611705       -5.4971978263      -18.0745610201
 H         6.3392936210       -2.6846170320      -13.4038531424
 H         4.9959484660       -3.9473764917      -13.6716325767
 H         4.0449551884       -1.1637917031      -13.8452939278
 H         4.6836303094       -1.4906491217      -12.1917628548
 H         2.8678938525       -3.0316396509       -9.0296291367
 H         1.3803855457       -3.5825586667       -9.8575662686
 H         0.2040943161       -1.4173932176       -9.2387675715
 H         1.6975988705       -0.8999628049       -8.3559181674
 H         0.4945245101        1.4698459649       -5.1693673546
 H        -0.3220542013        0.1837407689       -4.2042387033
 H        -1.7838264208        2.4076825172       -5.6596539504
 H        -1.7700771938        2.0630082066       -3.9718718076
 H        -4.4921068726       -2.2821897771       -6.5616369348
 H        -4.1171437628       -0.9060998380       -7.7590538224
 H        -6.9238843404       -1.4928091991       -7.6098278372
 H        -6.1573239933       -2.8686282163       -8.3390402441
 H        -7.8674081313       -2.6408395976      -12.9195530384
 H        -9.2045775915       -1.6525112493      -12.2824265202
 H        -9.9353339685       -3.8844772169      -12.9657455307
 H       -10.4003340744       -3.4115630061      -11.3733400135
 H       -10.6534033892       -5.0085786168       -8.6729691382
 H        -9.0980702533       -4.5701816347       -8.9094628965
 H        -8.6261346177       -6.7301961452       -7.2797151768
 H       -10.2674355118       -6.3137412606       -6.6710570242
 H        -8.1749667413       -5.5449976280       -1.9184583236
 H        -9.7253762253       -5.3935605541       -2.1729346492
 H        -8.0722994440       -2.9396250611       -1.3084819421
 H        -8.7174908015       -4.0311860319       -0.1989372795
 H       -12.9159064696       -0.4385522288       -1.6905581763
 H       -11.8136759630       -1.4337714912       -2.6748114250
 H       -11.3454191238        1.5320799556       -2.4914773128
 H       -12.7066098418        0.9806301587       -3.4111550793
 H       -11.8063895816        1.9038842584       -7.3292456915
 H       -11.1551762397        0.3755501397       -7.9083969607
 H       -10.6572862064        2.4230701437       -9.4761438291
 H        -9.2697107740        1.2495222467       -8.9994670758
 H        -6.0590942668        3.2030984867       -8.4233376058
 H        -6.1493155646        4.8774208627       -8.4810777383
 H        -5.4765576771        4.0072487490       -9.9481922797
 H       -10.7985794383        5.1262643487       -9.5563650262
 H       -10.1168883688        3.9036113961      -10.5873772245
 H        -9.6560019826        5.6567363464      -10.6458988529
 H        -9.5376939703        6.4080231903       -7.9280140567
 H        -8.0356338067        6.6171724105       -8.6334070285
 H        -8.0432034690        5.6374007154       -7.2281059149
 H       -10.7659821407        3.3264351539       -5.7195913366
 H       -11.2543542805        3.2470966006       -4.0372094846
 H       -12.1699157267        2.3872312520       -5.2037242132
 H        -8.6481379972        2.9757098130       -4.8044906113
 H        -8.2175222624        1.3078990300       -4.4790806060
 H        -9.0978517825        2.3115765365       -3.2224853999
 H       -12.3180378397       -1.3925584565        1.1306952408
 H       -11.6954336548       -3.1129605173        1.1875340055
 H       -12.6990917939       -2.6719212511       -0.2131638580
 H        -9.5538779549       -0.6028360201        1.0609735587
 H        -8.5211510651       -1.9049404923        0.4012509418
 H        -9.5826420044       -2.1801379135        1.7711519430
 H        -8.4985102184       -7.4938724988       -5.1053630844
 H        -9.7284563232       -6.8077511404       -4.1845632274
 H        -8.2104461632       -7.1081836215       -3.4521131357
 H        -6.1349033476       -5.5522833531       -4.0964306669
 H        -6.3019016548       -4.1639892198       -5.0535650331
 H        -6.2019095515       -5.7961881452       -5.8861998060
 H       -11.5821405179       -5.1518753360      -11.4132280238
 H       -11.7440707941       -6.8717625325      -11.0526814529
 H       -11.2281875170       -6.5047991333      -12.6506616810
 H        -8.0038508613       -7.4392626167      -11.4967577731
 H        -8.9579290606       -7.3654251368      -12.9598687808
 H        -9.5243512786       -8.2869315458      -11.5842854732
 H        -6.7432554502       -0.7392333626      -12.7883219876
 H        -5.3018322338       -0.1332820776      -11.8591050784
 H        -6.7706117844        0.4427957906      -11.4831901894
 H        -4.4540657447       -2.4370240835      -11.2946508516
 H        -5.7751178380       -3.5047812518      -12.0134612404
 H        -5.3858501056       -3.6298939515      -10.3586415018
 H        -4.6041231296        2.9770900785       -5.0757575647
 H        -5.1700288679        1.5877322765       -4.0008505481
 H        -6.1437302982        2.2568831405       -5.3447703620
 H        -3.8495873855        2.6764222958       -7.1863317415
 H        -4.9887656181        1.5958513111       -7.8908263952
 H        -3.3015877872        1.0600683264       -7.8718531026
 H         0.1924732008       -2.3394608303       -4.0539921231
 H        -0.2954329855       -3.5068668184       -5.2688769969
 H        -1.2744416968       -2.1033556602       -4.9851634669
 H         1.8911221488       -0.6614037578       -4.6609186499
 H         2.4243708965       -0.5274700499       -6.3304385194
 H         2.7234209216       -2.0541223094       -5.6955523728
 H         2.7034424166        0.1872518395      -12.6931896709
 H         0.9712822927        0.2499700829      -12.4407707304
 H         1.4306686884       -0.4779627320      -13.9055180235
 H         0.2789928318       -3.3188717196      -11.6142127001
 H         0.0244490252       -2.6307427875      -13.2048234738
 H        -0.3093043339       -1.7087142017      -11.7322864905
 H         8.1488596546       -4.4742470822      -16.2632479814
 H         7.1123247092       -4.3113712462      -14.8233928868
 H         8.3079537706       -3.1243207269      -15.1916155489
 H         7.8998189771       -1.6907442820      -17.3641130525
 H         7.2435882736       -0.9315323175      -16.0262134344
 H         6.3020437884       -1.1027475959      -17.5363602325
 H         3.8683090376       -4.3771447833      -20.9697230471
 H         5.2139567218       -4.8974123094      -22.1041714807
 H         3.8850581929       -3.8420452997      -22.7244786209
 H         6.2816682362       -1.3021374503      -22.8872007900
 H         5.0708991457       -2.2422848348      -23.6728121602
 H         6.4993185814       -3.0034199582      -23.3521966340
 H         4.5366244184        3.6730402029      -16.5813878852
 H         5.6629264478        2.3347528512      -16.5002204704
 H         3.9938538762        2.0092502577      -16.2300199481
 H         3.3690154585        4.5462508342      -18.6385418703
 H         2.3180521164        3.2243438805      -18.3959276547
 H         3.1041972080        3.2850658290      -19.9843347725
 Na       -8.0646925287       -1.7889216997       -5.6189398801
 Na        3.4268684354       -1.9177688889      -18.0952951910
