232

 C         6.4556265517        4.1744843110      -18.8428085175
 C         5.7293250431        2.9352057994      -19.2026266013
 O         6.0362837981        2.3404679970      -20.2283391723
 C         4.3756057603        2.5736674497      -18.4092776550
 C         3.9479285739        1.0507013513      -18.6317837065
 O         4.1663559173        0.1843728408      -17.8227821608
 C         3.6335689725        0.6751522586      -20.1640467795
 C         4.6822314651       -0.2934453664      -20.9108582846
 C         4.3238698544       -1.7942629012      -20.7639099277
 O         3.2916078257       -2.1249125706      -20.2327724402
 C         5.3792188452       -2.8669604482      -21.5111258139
 C         6.6519721968       -2.9996871142      -20.5324413437
 O         7.2355959252       -2.0007874088      -20.1085883234
 C         7.1057701929       -4.3897285931      -20.0713728847
 C         7.2489798913       -4.5617984010      -18.5769742230
 C         6.2037194968       -3.7628680215      -17.7760003685
 O         5.1398780723       -3.4961556165      -18.3881621897
 C         6.5020985013       -3.0298779086      -16.3532104894
 C         5.1680435599       -2.7018579310      -15.4594886922
 O         4.2061606599       -2.1784954112      -15.9091612976
 C         5.3717008688       -2.8461241171      -13.9275697298
 C         4.3275454928       -2.0194410116      -13.1658039408
 C         2.9489322693       -2.6850150492      -13.0121505375
 O         2.6586623914       -3.8476739922      -13.1725780631
 C         1.9055248543       -1.8439074464      -12.1661877284
 C         2.4576931039       -1.7608601172      -10.6876506131
 O         3.2571740926       -0.8658967323      -10.5183279052
 C         2.0280881679       -2.7248302807       -9.5524996631
 C         1.1362784835       -1.7981481218       -8.6791815189
 C         0.5073637865       -2.4412962527       -7.4253948292
 O        -0.0119088081       -3.5556608809       -7.5301398045
 C         0.4928206662       -1.5798548080       -6.1211452570
 C        -0.3227036324       -0.3086561683       -6.3537618294
 O        -0.8422650354       -0.0102746986       -7.3929008118
 C        -0.4640181154        0.6748923773       -5.1192311998
 C        -1.8093224612        1.5231129035       -5.0468810169
 C        -2.9568506732        0.6135451686       -5.1628758829
 O        -2.9447450192       -0.4427996912       -4.6151386481
 C        -4.2759686395        0.9660595846       -5.9792936846
 C        -5.2173460005       -0.3119808119       -6.0473617306
 O        -6.0896131602       -0.6195016275       -5.2768251593
 C        -4.8609388259       -1.4203932254       -7.1263401484
 C        -5.9556551936       -1.8980307862       -7.9648255908
 C        -6.1347410402       -0.9680342387       -9.1875443478
 O        -5.8432301140        0.1804785518       -9.0852860119
 C        -6.3758860479       -1.6263598227      -10.5643214022
 C        -7.9200097714       -2.1638852384      -10.6569334750
 O        -8.5157763321       -2.3299505687       -9.6474797723
 C        -8.5721738210       -2.4365396377      -12.0066873438
 C        -9.6390175976       -3.6426261023      -11.8050023813
 C        -8.9045420058       -4.9308416087      -11.3747875912
 O        -7.6901617605       -5.0418995022      -11.3112746189
 C        -9.7415328635       -6.3426842045      -11.0520929071
 C        -9.6643041255       -6.6135310635       -9.5302095210
 O        -9.5711342539       -7.7689764094       -9.1581014724
 C        -9.6798759553       -5.4716487966       -8.4966076310
 C        -9.3372119896       -6.0529034007       -7.1637215255
 C        -8.7377104373       -4.8669818939       -6.2836325774
 O        -8.8124300334       -3.7172098343       -6.6636311889
 C        -8.1396827394       -5.3078600701       -4.7984767545
 C        -8.5144533209       -4.3084884021       -3.7180125081
 O        -8.4624362454       -3.1232001514       -3.8780925231
 C        -8.8145899430       -4.7679372601       -2.2815652182
 C        -8.8479694622       -3.6692875151       -1.2793629464
 C       -10.2357419584       -2.9875436332       -1.2185164238
 O       -10.9957991558       -3.2650295111       -2.1130512191
 C       -10.7081623865       -1.8572317029       -0.0979820316
 C       -10.9220919550       -0.4905493655       -0.9591740763
 O       -10.1772252708        0.4223261550       -0.6992997315
 C       -12.0346390849       -0.4633855943       -1.9704722912
 C       -11.8273699034        0.6740182701       -2.9827282791
 C       -10.8006957945        0.3459958359       -4.1018902331
 O       -10.2242524309       -0.7457508408       -4.1802898735
 C       -10.3314942005        1.6034289054       -5.0265097592
 C        -9.9058551568        0.9769432699       -6.3581214807
 O        -8.9421990681        0.3237503738       -6.4614507125
 C       -10.8471891459        1.3571971765       -7.5618958231
 C       -10.0278976358        2.1317375625       -8.6278611963
 C        -9.2723802534        3.3009852080       -8.0802613708
 O        -8.7736468829        3.3605366487       -6.9318674167
 C        -8.9083899787        4.5135732139       -9.0233601261
 C        -7.6311874432        4.0500693991       -9.8025606566
 O        -7.7951677058        3.4065798212      -10.7964205876
 C        -6.2057452707        4.1949412402       -9.1256137200
 C       -10.0720863095        4.8376288201      -10.0641976039
 C        -8.4813821620        5.8575431567       -8.2958997909
 C       -11.3172972273        2.8803151088       -4.9587117728
 C        -8.9516082863        1.9922440530       -4.2474994522
 C       -11.9805144952       -2.2660097287        0.6044348733
 C        -9.4829531469       -1.5659711107        0.8258075942
 C        -8.5092180641       -6.6597427567       -4.4271268747
 C        -6.4933638538       -5.2079617918       -4.7623464787
 C       -11.2057892238       -6.2826245575      -11.5788667481
 C        -8.8976719528       -7.4360585100      -11.8470822879
 C        -6.3494420958       -0.4489341202      -11.6706619739
 C        -5.4425031038       -2.7158141931      -10.9230448788
 C        -5.0189144441        1.9962424548       -5.1794514736
 C        -3.9422789723        1.5802673774       -7.3151089668
 C        -0.1683990201       -2.4380866411       -5.0254023710
 C         2.0261169977       -1.3086612306       -5.7759536123
 C         1.7415367496       -0.4265191524      -12.7919256894
 C         0.4494219147       -2.4706707641      -12.1512590215
 C         7.6747887000       -3.6898955278      -15.6547148416
 C         6.9353432131       -1.5825581780      -16.8615555882
 C         4.5061936424       -4.1433824770      -21.8785579101
 C         5.8705510609       -2.2033680469      -22.7552147731
 C         4.6741219843        2.6027583290      -16.9137614697
 C         3.3333263123        3.5843974819      -18.7929118765
 H         6.2727828485        5.0072814609      -19.5612995963
 H         7.5044131466        3.8527968494      -19.1612420105
 H         6.4556182398        4.4654982591      -17.7779717753
 H         3.4852586674        1.5583332159      -20.8063582987
 H         2.7371641886        0.0754608434      -20.0555241693
 H         5.7568634497       -0.3592722577      -20.6285666259
 H         4.6537139612        0.0493865069      -21.9827669483
 H         8.0981784431       -4.5088288600      -20.4710129872
 H         6.4651571883       -5.1988790598      -20.4074215549
 H         8.2395664124       -4.1846626884      -18.0158101265
 H         7.1665479972       -5.5788546255      -18.3322871338
 H         6.3228108023       -2.4221168065      -13.6895707170
 H         5.1834290877       -3.8425742756      -13.5586514887
 H         4.1356239935       -1.0445694396      -13.6116291372
 H         4.7039283099       -1.9321246052      -12.1286847708
 H         2.8839971473       -3.0024560405       -8.9371963595
 H         1.5232643029       -3.6446906747       -9.8593865445
 H         0.1394249941       -1.3989200115       -9.1022705459
 H         1.7117468733       -0.9023184458       -8.2916046501
 H         0.3125494858        1.4011381534       -5.3361967293
 H        -0.2973737231        0.1557932330       -4.2314580059
 H        -1.8555027504        2.2093831126       -5.9126510487
 H        -1.7423751058        2.2200056720       -4.2297188807
 H        -4.4402996571       -2.2727106203       -6.6177861881
 H        -4.1572114050       -0.9437682933       -7.8059255876
 H        -6.8246741738       -1.8300571688       -7.3239108508
 H        -5.8915603975       -2.8954705360       -8.3809795145
 H        -7.8999462693       -2.9067014442      -12.7867423558
 H        -9.1232773386       -1.5888399958      -12.4453543803
 H       -10.3578608921       -3.7989795681      -12.6579140551
 H       -10.3431400479       -3.4881722894      -10.9973782247
 H       -10.6761387424       -5.0097654618       -8.4584208883
 H        -9.1033836690       -4.5915028512       -8.7343765079
 H        -8.5083525789       -6.8352962365       -7.2940874229
 H       -10.2216654135       -6.4372220072       -6.6833876004
 H        -8.1379871143       -5.4679154486       -1.9113479743
 H        -9.6833805682       -5.5002015057       -2.2048815940
 H        -8.1783692577       -2.7898807732       -1.5224107538
 H        -8.4870060284       -3.9686446345       -0.2719347122
 H       -13.0635245301       -0.3935477536       -1.6094339073
 H       -11.8668055770       -1.5050552709       -2.4143416959
 H       -11.3345600973        1.4891445823       -2.4817106548
 H       -12.7371219474        1.0233637416       -3.3969666125
 H       -11.6771072137        2.0708728425       -7.1545361268
 H       -11.3923707554        0.4532227555       -8.0039117178
 H       -10.7379060359        2.5395216774       -9.3870108868
 H        -9.3334196792        1.4352092811       -9.0582173904
 H        -5.8830911188        3.2834254332       -8.6857390348
 H        -6.0164906306        4.9055843786       -8.2866936112
 H        -5.5654120112        4.3864310929       -9.9832857682
 H       -11.0595833274        5.0907808279       -9.5834103409
 H       -10.1757267284        4.0860579348      -10.7789295416
 H        -9.7288462569        5.7897119875      -10.4945453771
 H        -9.2666913584        6.4589273691       -7.8389704930
 H        -7.8479724255        6.5789367491       -8.8489197650
 H        -7.8190672479        5.5014007028       -7.5661614048
 H       -10.7981392228        3.5983277915       -5.5753171465
 H       -11.3556451952        3.1124486338       -3.9505810866
 H       -12.3059585668        2.6074371267       -5.2204187780
 H        -8.5075365220        2.9256910047       -4.6770874773
 H        -8.1746455841        1.1827422447       -4.3528329340
 H        -9.1803686863        2.1744367485       -3.2202635477
 H       -11.9539507815       -1.5725438384        1.4670114067
 H       -11.8894279334       -3.3592340200        0.8126337328
 H       -12.8210092345       -2.0915458797       -0.1369423887
 H        -9.9159054838       -0.9025149225        1.6264057528
 H        -8.6111872476       -1.1497538047        0.3334050512
 H        -9.2207770217       -2.5065184700        1.3072659095
 H        -8.1644588510       -7.4714915593       -5.0917946658
 H        -9.6013166432       -6.8290896586       -4.4195807058
 H        -8.2655337522       -6.9405165518       -3.4479191785
 H        -6.0306056313       -5.3045985142       -3.7560745641
 H        -6.2214350835       -4.2106620967       -5.1240267149
 H        -6.2171167569       -5.9391761324       -5.4190499394
 H       -11.4522967322       -5.2451672544      -11.7655018800
 H       -11.8958214171       -6.6590105032      -10.8138091275
 H       -11.3666340658       -6.9365008261      -12.3720021715
 H        -7.8625374437       -7.2895233622      -11.5926674294
 H        -9.0116945700       -7.3492300877      -12.8839441035
 H        -9.1556196390       -8.4199181144      -11.5648468324
 H        -6.8520750829       -0.8509420225      -12.5353933534
 H        -5.3439227210       -0.0939963590      -11.8751678146
 H        -6.8235998873        0.4980603385      -11.3617302774
 H        -4.4913612632       -2.4070686261      -11.2302415073
 H        -5.9228126530       -3.4381191596      -11.6819651837
 H        -5.2608609006       -3.3973640972      -10.0994665007
 H        -4.3199337355        2.7875434784       -5.0602066795
 H        -5.3722695459        1.5695293993       -4.2753193206
 H        -5.7928912032        2.4535064588       -5.7415113515
 H        -3.5491887664        2.6474740767       -7.2960751113
 H        -4.8970563748        1.6323756288       -7.8429286629
 H        -3.3414242305        0.8611767602       -7.8201832331
 H        -0.1103712122       -1.8750761504       -4.1817465966
 H         0.3522299412       -3.3878217179       -4.7793926877
 H        -1.1784058112       -2.6558692632       -5.2169628150
 H         2.2552329545       -0.9669303638       -4.7744050873
 H         2.5271797931       -0.5081222925       -6.4117256558
 H         2.5993443700       -2.1443293962       -6.0842075201
 H         2.6896906267        0.1060643978      -12.8709681264
 H         1.0370505508        0.1839491102      -12.3474903034
 H         1.3241982116       -0.6539187456      -13.7629999692
 H         0.4303576248       -3.5255425443      -11.8804936153
 H        -0.1351989320       -2.3682700137      -13.0710610863
 H        -0.0318506327       -1.9546270183      -11.3480071703
 H         8.2728381918       -4.3197922071      -16.3870222644
 H         7.2403124182       -4.2935402367      -14.8219565210
 H         8.2985765128       -2.9507568492      -15.1464508075
 H         7.9349672407       -1.4385334765      -17.3157575605
 H         7.0326439636       -0.8351830276      -16.0297898602
 H         6.1841787919       -1.2410351311      -17.5205510697
 H         3.8280426505       -4.4102581039      -21.0543203915
 H         5.2314485426       -5.0023940551      -21.9950575049
 H         3.9983443218       -3.9510182943      -22.7561763948
 H         6.4433325449       -1.2811197622      -22.5774382621
 H         5.0727747569       -1.9041895066      -23.3873060097
 H         6.4669376976       -2.8853989758      -23.4743513906
 H         4.4824948261        3.6210860004      -16.5397913713
 H         5.7504918905        2.4018661389      -16.6678530324
 H         4.1284022793        1.9357669139      -16.2307955206
 H         3.2850570250        4.5409831175      -18.2741303122
 H         2.2816601108        3.1198690347      -18.5287251204
 H         3.2701481068        3.7686034454      -19.9018585496
 Na       -8.1367883092       -1.6552701572       -5.6746727971
 Na        3.3922788844       -1.8653579661      -18.0979927426
