232

 C         6.1541300417        4.5704575685      -19.1194487324
 C         5.5246676422        3.1509293108      -19.3011654558
 O         6.0197429219        2.3887969198      -20.0783644869
 C         4.3324669427        2.6653408869      -18.4103313612
 C         3.8480216882        1.1442312147      -18.7099785539
 O         3.7540384661        0.3036166580      -17.8691889978
 C         3.6728404988        0.7525904030      -20.1131498052
 C         4.7929908059       -0.0730260342      -20.7273746309
 C         4.4016153949       -1.5217652656      -20.8330793828
 O         3.4189292705       -2.0378747427      -20.3653394962
 C         5.3560819690       -2.5217154517      -21.5584560553
 C         6.4971586901       -2.7311733776      -20.6292830446
 O         7.0416018698       -1.7929359678      -20.0820674879
 C         6.9304455532       -4.1386117049      -20.2097968414
 C         7.3120234307       -4.0719265553      -18.7372875837
 C         6.1429619261       -3.6634721592      -17.7504083019
 O         4.9471016781       -3.7604012694      -18.1704351393
 C         6.5828970266       -2.9291698969      -16.5310716553
 C         5.2059833112       -2.8215345389      -15.5178400168
 O         4.1909682448       -2.4444077336      -16.0144796391
 C         5.4059038359       -3.0864669096      -13.9722226883
 C         4.4400056647       -2.0820232641      -13.1923221539
 C         3.0279987321       -2.8194718843      -13.0631400919
 O         2.8578498732       -3.7853254967      -13.6964536994
 C         1.9085273622       -2.0767979166      -12.1969580406
 C         2.6289297127       -1.8108154946      -10.7151356492
 O         3.6093095919       -1.0818570230      -10.6895776310
 C         2.1505158712       -2.5792765007       -9.5147497718
 C         0.9733120511       -1.7688924074       -8.9325107894
 C         0.3588199140       -2.4089307874       -7.6263682495
 O        -0.3038126584       -3.4462436668       -7.7459025534
 C         0.6174258927       -1.7670020798       -6.1943910927
 C        -0.1952255022       -0.4504544951       -6.2289209303
 O        -0.7234168836       -0.1171839358       -7.2472474013
 C        -0.3666743250        0.3866400912       -4.9075009691
 C        -1.6547560625        1.2840667182       -5.0851522484
 C        -2.8780693266        0.4070214723       -5.3188165622
 O        -2.7872533020       -0.6890366927       -4.8363885370
 C        -4.2038034105        0.8981382049       -6.0197630730
 C        -5.2631739765       -0.2982913115       -6.1715337036
 O        -6.3190664052       -0.1861176103       -5.6287984216
 C        -4.8896584020       -1.5660330861       -6.8758586489
 C        -5.8481741846       -2.1653702434       -7.8433574221
 C        -6.2120212915       -1.0699871594       -8.9051282524
 O        -6.4105684535        0.0592382462       -8.5391227454
 C        -6.6205671564       -1.4361496253      -10.3985017514
 C        -8.0560530753       -2.1116213049      -10.1433119243
 O        -8.4987056642       -2.1379407043       -9.0285398620
 C        -8.7938078067       -2.5497383510      -11.3639526794
 C        -9.6254017645       -3.8976275951      -11.2891716340
 C        -8.7579847449       -5.1463040663      -11.3544766936
 O        -7.5837351828       -5.1868580654      -11.6651342036
 C        -9.6028183626       -6.4858061517      -10.9815083190
 C        -9.2892419486       -6.7175738343       -9.4712141298
 O        -8.9528693237       -7.8121518351       -9.0595859931
 C        -9.4408867168       -5.6066904704       -8.4587818312
 C        -9.1154407654       -5.9434484672       -7.0099231848
 C        -8.7468892847       -4.7622182913       -6.1248530991
 O        -8.7608783460       -3.6194569741       -6.5257315004
 C        -7.9793246114       -5.2307910014       -4.7939680026
 C        -8.3184976823       -4.2688748830       -3.5740841313
 O        -8.3132321024       -3.0488261463       -3.5781481787
 C        -8.7248372493       -4.7519166657       -2.1537578813
 C        -8.8755801113       -3.6994244812       -1.1396104991
 C       -10.1750782958       -2.9378356157       -1.3333454839
 O       -10.9783761721       -3.2572764504       -2.1607358068
 C       -10.4958123132       -1.8098679197       -0.2336595333
 C       -10.7601514527       -0.5542123583       -1.1322278943
 O        -9.9998681369        0.3761140285       -1.0552829901
 C       -12.0983602248       -0.4304943547       -1.9305796257
 C       -12.1185467959        0.5179312688       -3.0567654993
 C       -10.9498820587        0.2754520114       -4.0167173448
 O       -10.3880358576       -0.8120698659       -4.0861494853
 C       -10.3108479586        1.4660728070       -4.7607094128
 C       -10.0085669672        1.0864987864       -6.3264728904
 O        -9.0315776474        0.5143530315       -6.5759399567
 C       -10.9484285882        1.6643480718       -7.4150262040
 C       -10.0370069634        2.2349690519       -8.6218455355
 C        -9.4017042501        3.5457392960       -8.1831915243
 O        -9.1811215834        3.6869325025       -6.9733981680
 C        -8.9420388076        4.6304502233       -9.2668824781
 C        -7.6224337885        3.8165382712       -9.9175416724
 O        -7.8383885471        2.9258959688      -10.6618247166
 C        -6.2050965273        4.4343156930       -9.7790680084
 C        -9.8252547974        4.7907892903      -10.4893543351
 C        -8.4952968360        5.9668157931       -8.5208233425
 C       -11.2355330894        2.7546132265       -4.6779722415
 C        -8.8830595416        1.7659380812       -4.1837838877
 C       -11.8625217832       -2.2754048770        0.5430893730
 C        -9.4857952783       -1.4611060168        0.8538473024
 C        -8.3462119337       -6.6592008372       -4.3012820084
 C        -6.5229113157       -5.1160582468       -5.1884504807
 C       -11.1834474743       -6.4197267478      -11.2025555101
 C        -9.0514024775       -7.5757392413      -11.8523637330
 C        -6.7849241126       -0.2062388057      -11.2319499498
 C        -5.7372420244       -2.5455714233      -10.9672232168
 C        -4.7981581972        2.0879399933       -5.2699687311
 C        -3.7921719321        1.3344579444       -7.5464604094
 C         0.0804819445       -2.8327173430       -5.1983076895
 C         2.0985283958       -1.4862840730       -5.9298461515
 C         1.6445524369       -0.7698867889      -12.9337170624
 C         0.6891398508       -3.0011422130      -12.1535729822
 C         7.8058020193       -3.6476895770      -15.9352127561
 C         6.9270463902       -1.4213110574      -16.9841722456
 C         4.6482269862       -3.8539784751      -21.9221518865
 C         5.8270767609       -2.0131905037      -22.9255431670
 C         4.6358207177        2.7478230087      -16.8934109705
 C         3.1090691179        3.5084611337      -18.6138382807
 H         5.5075728329        5.2895252643      -18.7043026517
 H         6.5104772236        4.9250963184      -20.0737101738
 H         6.9660364465        4.4829011485      -18.3370811126
 H         3.4577091774        1.7180865093      -20.6162732823
 H         2.7429597195        0.2202217476      -20.0430061225
 H         5.7150165543        0.0599023754      -20.1494022992
 H         4.9422001546        0.1681297159      -21.8035879742
 H         7.8476348581       -4.4679308031      -20.6932914814
 H         6.0762492219       -4.8083742017      -20.3657580408
 H         8.0689138754       -3.3828283450      -18.5508633931
 H         7.5541308009       -5.0591651170      -18.3078174067
 H         6.3924908626       -2.8748377440      -13.6206994024
 H         5.0308227331       -4.1165705757      -13.9013214652
 H         4.3848383494       -1.2573156341      -13.8812741278
 H         4.8976219549       -1.8233512450      -12.2680741025
 H         3.0180271015       -2.6571287248       -8.8446640836
 H         1.8685965103       -3.6065271669       -9.7962081657
 H         0.0751062817       -1.7362019746       -9.6196795748
 H         1.1733505254       -0.6558759751       -8.8084779518
 H         0.5354122984        1.0148195885       -4.8165223760
 H        -0.5105268506       -0.3350289778       -4.1614798507
 H        -1.4814796667        2.1153075871       -5.8353392659
 H        -1.8249847281        1.9304396796       -4.2231493519
 H        -4.7169174078       -2.4133505619       -6.1955997819
 H        -3.9061194811       -1.4641285204       -7.4101398726
 H        -6.8454114205       -2.4359852359       -7.5457692376
 H        -5.4275380906       -3.0215148075       -8.2563188188
 H        -8.1203311328       -2.7265993332      -12.2252976879
 H        -9.4814019878       -1.7270029164      -11.5803122026
 H       -10.4917750388       -4.0465268602      -12.0131478600
 H       -10.1848884918       -3.7512018239      -10.3321507786
 H       -10.4658402344       -5.1822118851       -8.5099575106
 H        -8.7447042701       -4.8092081835       -8.7242565023
 H        -8.2010550047       -6.5833401777       -6.9439472748
 H        -9.8710194962       -6.4562584153       -6.4818135580
 H        -8.2414784553       -5.5720135026       -1.7134162285
 H        -9.6969332199       -5.2318757439       -2.4324025558
 H        -8.1531011683       -2.8899815288       -1.1961331615
 H        -8.9214389014       -4.1194460936       -0.1021643732
 H       -12.8144553187       -0.1553640687       -1.1530114620
 H       -12.4628532370       -1.4288138083       -2.2819791543
 H       -11.8704627158        1.4992186703       -2.7109535409
 H       -13.0172717711        0.5457443536       -3.5830714224
 H       -11.6185711316        2.4859798980       -7.0530432200
 H       -11.5516240391        0.7759172084       -7.7535134139
 H       -10.6659947674        2.2941310013       -9.5842193389
 H        -9.1961213937        1.5705399086       -8.8651394614
 H        -5.3886370430        3.9329232152      -10.2253947450
 H        -5.8646024109        4.5181922728       -8.7052869861
 H        -6.4472030219        5.4790588289      -10.0543081082
 H       -10.8296406620        5.2138746437      -10.2387240211
 H        -9.9585449778        3.8958129722      -10.9816261877
 H        -9.2576205544        5.4488507714      -11.0938676249
 H        -9.3842436216        6.4209411105       -8.0822295412
 H        -7.9452476068        6.6237050394       -9.2431863672
 H        -7.8329677033        5.8897160133       -7.6898869074
 H       -10.6802604809        3.4722839664       -5.2939225604
 H       -11.1611343555        3.0966166401       -3.6940543528
 H       -12.2215955281        2.5271540125       -4.9284298324
 H        -8.4561060419        2.6222429090       -4.7554739791
 H        -8.1805006856        0.9281035125       -4.4062806376
 H        -8.8743490788        1.9061500799       -3.1525169187
 H       -12.3918937234       -1.4050187984        0.8736131120
 H       -11.5608243664       -2.9854229447        1.3674854759
 H       -12.4206520716       -2.8263320218       -0.2511034768
 H        -8.7415000450       -2.2154801812        1.1573366589
 H       -10.0070463277       -1.1258369967        1.7221198597
 H        -8.9454331999       -0.6521706457        0.4272398751
 H        -8.1171008311       -7.5100231730       -4.9795849428
 H        -9.3214796069       -6.8987472420       -3.9317586043
 H        -7.7079872219       -6.9699654335       -3.4953952550
 H        -5.8475603609       -5.6671707585       -4.4983928311
 H        -6.3289449201       -4.0353109956       -5.1101656541
 H        -6.3423051942       -5.4423871022       -6.1533659332
 H       -11.3357620668       -6.6774995788      -12.2760770447
 H       -11.5281672368       -5.3452052977      -11.0560664470
 H       -11.7946509789       -7.0223931202      -10.5751155314
 H        -7.9422051530       -7.6925636921      -11.7773888065
 H        -9.3207637952       -7.3223401945      -12.8738172861
 H        -9.4524223120       -8.5488276195      -11.5853788004
 H        -7.0113516367       -0.4137052371      -12.2376195361
 H        -5.8833698507        0.4434831414      -11.1997823277
 H        -7.6256685877        0.3544145407      -10.7173673711
 H        -4.8331348324       -2.7334652548      -10.4059758769
 H        -5.3806104577       -2.4081412984      -12.0244809376
 H        -6.1615409267       -3.5957742412      -10.9545823786
 H        -3.9337893235        2.8150762879       -5.2485407365
 H        -4.9933937627        1.8345920085       -4.2150665499
 H        -5.6350085828        2.5577061392       -5.8407412816
 H        -3.3521846223        2.3532549222       -7.5487349998
 H        -4.6984827379        1.3024317586       -8.1436326061
 H        -3.1286394238        0.6281752341       -7.9820196595
 H        -0.7822837725       -3.3880707737       -5.5839580421
 H        -0.0768426299       -2.3965239261       -4.2326485092
 H         0.8781254416       -3.5909895017       -5.1144486700
 H         2.4548624000       -0.8036183967       -5.1568839181
 H         2.7475831576       -0.9612403900       -6.7800375658
 H         2.4704329096       -2.4981310721       -5.7430430422
 H         2.4588133255       -0.1477421069      -12.7850022740
 H         0.6765847184       -0.2892753712      -12.6286700056
 H         1.5795409940       -0.9656652139      -14.0424323224
 H         0.9273141771       -3.8094913460      -11.4841734816
 H         0.2695280475       -3.3857329498      -13.0745145960
 H        -0.1546050634       -2.4902901711      -11.6670215583
 H         8.6279163709       -3.4610053874      -16.5799883883
 H         7.6744265156       -4.6702278828      -15.8266735861
 H         8.0738046662       -3.2872763653      -14.9191787705
 H         7.5833400962       -1.3416282573      -17.8407386698
 H         7.5243441056       -0.8553058421      -16.3085380026
 H         6.0064438230       -0.9417654426      -17.1569984269
 H         4.2124083678       -4.4015640149      -21.0203138293
 H         5.3857414416       -4.5617313649      -22.3053745999
 H         3.8083028009       -3.5428253346      -22.5200851635
 H         6.1521380234       -0.9896768547      -22.8856887614
 H         4.9450269298       -1.9734158159      -23.5443763526
 H         6.6969035922       -2.5359851105      -23.3734742074
 H         5.1360931503        3.6834675158      -16.6747816997
 H         5.2736953000        1.8459270775      -16.6887073360
 H         3.7955387508        2.7682265384      -16.2033446085
 H         3.2485413279        4.5941138441      -18.6621554017
 H         2.5083748239        3.2070809007      -17.6857944306
 H         2.3981929074        3.4015088234      -19.4325414611
 Na       -8.3910405309       -1.3755189831       -5.1756568584
 Na        3.3055070472       -2.0674704625      -18.1663300646
