232

 C         5.9077111067        4.5005929825      -19.0549317893
 C         5.4702176236        3.1328162462      -19.2973214629
 O         6.0068381359        2.3401333896      -20.0305364158
 C         4.2594865116        2.6545124154      -18.3773278668
 C         3.8731693014        1.1927846706      -18.7498513236
 O         3.7696740120        0.3916044437      -17.7825767314
 C         3.6419485076        0.8236824577      -20.2864636166
 C         4.8198316304       -0.0074570504      -20.8336973872
 C         4.3338255672       -1.5412361458      -20.9944081747
 O         3.3807717908       -1.8561367431      -20.3005122126
 C         5.2663523098       -2.5326414475      -21.8292053731
 C         6.4612139857       -2.7502484907      -20.7099072327
 O         6.9395010391       -1.7816680863      -20.1887512790
 C         6.9305509070       -4.1736638154      -20.2932417836
 C         7.3852487216       -4.1221368365      -18.7919549895
 C         6.1625611197       -3.6123291187      -17.8617597921
 O         5.0288089410       -3.7722809810      -18.2161373925
 C         6.5536860948       -2.9438943867      -16.4432636176
 C         5.3379132824       -2.8464620795      -15.5269202563
 O         4.2695066650       -2.4323604727      -15.9883773694
 C         5.5076684918       -2.9545041757      -14.0539147504
 C         4.4934962225       -2.2085692669      -13.1715343016
 C         3.0981521295       -2.8634186054      -13.1388269884
 O         2.7913973975       -3.8918453779      -13.7330874312
 C         2.0320421908       -2.1379140291      -12.2012058873
 C         2.6967947784       -1.8714359526      -10.8475890598
 O         3.6712494387       -1.1334898176      -10.7870217037
 C         2.0807321950       -2.5648810166       -9.5741712245
 C         0.9789073677       -1.7680821397       -8.9398843936
 C         0.3992406676       -2.4946560507       -7.7178400050
 O        -0.2772639071       -3.4549301591       -7.7898752394
 C         0.6649001837       -1.8289027110       -6.2760787020
 C        -0.2434679717       -0.4638538981       -6.2267960145
 O        -0.8234355039       -0.0430523853       -7.2186155951
 C        -0.4575314411        0.4149711015       -4.8673371927
 C        -1.6749600504        1.2775629419       -4.9731160228
 C        -2.9318117013        0.3227958284       -5.2343164518
 O        -2.8735473029       -0.8606135526       -4.8977850394
 C        -4.1275561337        0.9014044385       -6.0111094969
 C        -5.2555688604       -0.1865720987       -6.1642743188
 O        -6.3676937859       -0.0162400009       -5.6272003523
 C        -4.8123434439       -1.6311455215       -6.7909510614
 C        -5.7926168649       -2.1979393894       -7.8204741549
 C        -6.3318537514       -1.1333994625       -8.8609301218
 O        -6.4719003157        0.0128760806       -8.4033223858
 C        -6.7615109240       -1.4616357385      -10.2917119191
 C        -8.1912960415       -2.0991874923      -10.1175920227
 O        -8.6423417533       -2.2959651624       -8.9575732699
 C        -8.8393281470       -2.5697921868      -11.3820655870
 C        -9.6376325937       -3.8780192642      -11.2083188113
 C        -8.7985819208       -5.1677373236      -11.3307792982
 O        -7.6319063336       -5.1704886827      -11.6752697867
 C        -9.4842940612       -6.4619458236      -10.9654339169
 C        -9.1421960196       -6.7373778476       -9.3800937301
 O        -8.8056356757       -7.8504458421       -9.0897605564
 C        -9.3735727596       -5.4958917067       -8.4246877407
 C        -9.0979130491       -5.9743861400       -7.0317752072
 C        -8.7296991064       -4.7654177513       -6.0049548381
 O        -8.7904357565       -3.6153208987       -6.3630775847
 C        -7.9821625724       -5.1223342027       -4.6628482877
 C        -8.3221576836       -4.1694591592       -3.4987396397
 O        -8.0846363879       -2.9367161026       -3.5876337916
 C        -8.7207339213       -4.8470748390       -2.1540270957
 C        -8.8022689160       -3.8563256044       -1.0282906685
 C       -10.1836492338       -3.0587087912       -1.1854429061
 O       -10.8953337392       -3.3048114047       -2.1257622002
 C       -10.5293596067       -1.8012054245       -0.2536092524
 C       -10.8524008689       -0.5601714892       -1.1306750919
 O       -10.0589415595        0.3667454377       -1.2453966479
 C       -12.1583570951       -0.5362396360       -1.9431946990
 C       -12.0753786928        0.5479789149       -2.9861391790
 C       -10.8729013182        0.3491942798       -4.0139463887
 O       -10.4664518719       -0.7819640268       -4.1667684490
 C       -10.2360089812        1.6282608535       -4.7971750890
 C       -10.1049770357        1.2440887147       -6.2958250903
 O        -9.2026331632        0.4001969099       -6.5388005373
 C       -10.9861607912        1.6914437100       -7.5387385147
 C       -10.0950867851        2.3039550603       -8.5950604244
 C        -9.3884874743        3.5728202346       -8.1270413694
 O        -9.2723629013        3.9143849049       -6.9990752469
 C        -8.8332072075        4.4693952227       -9.2965000247
 C        -7.6555300596        3.8380775567      -10.0121268995
 O        -7.7571530534        2.7490457081      -10.5917393134
 C        -6.3633292869        4.5260810699       -9.8649971850
 C        -9.8391537109        4.8617457786      -10.4311679095
 C        -8.4709097092        5.7806228383       -8.6866875917
 C       -11.1686718091        2.8526929122       -4.6094999820
 C        -8.8855898369        1.7437890082       -4.1519782669
 C       -11.9028993832       -2.1209209485        0.4864813165
 C        -9.4430972505       -1.4735986222        0.7737649175
 C        -8.2268951007       -6.6339089157       -4.4235526607
 C        -6.4857124337       -5.0884575223       -5.1312842449
 C       -11.0656073170       -6.2924010974      -11.0466624080
 C        -9.0688586684       -7.6728191961      -11.7732174228
 C        -6.9241179737       -0.1619989419      -11.1934205160
 C        -5.7558583729       -2.4593913121      -11.0424092328
 C        -4.6547480481        2.0907575445       -5.2488852330
 C        -3.6936564692        1.2410245739       -7.4914339434
 C         0.1170277567       -2.8338485974       -5.1616177564
 C         2.1548867533       -1.6147926436       -6.0774837239
 C         1.5609030218       -0.7900105806      -12.8789640110
 C         0.8468075105       -3.0987062118      -12.1518665693
 C         7.7831001136       -3.5183598173      -15.7115942921
 C         6.7541843023       -1.4721825058      -16.7781213744
 C         4.5973404153       -3.8999392425      -22.0536905048
 C         5.9288247147       -1.8659040586      -23.0650915887
 C         4.7828999501        2.8294352542      -16.8627700960
 C         2.9884908971        3.5703982963      -18.5729368219
 H         5.2044794687        5.0317514377      -18.3329401423
 H         5.8179106707        5.0139619390      -20.0495449337
 H         6.9181692542        4.6926755261      -18.5871170078
 H         3.4505463973        1.8177851391      -20.7251378802
 H         2.6838996104        0.3184667493      -20.3003607594
 H         5.5019160877        0.0679139372      -20.0048656973
 H         5.2578780901        0.3889193256      -21.7931697944
 H         7.8369066307       -4.3397820321      -20.8889721473
 H         6.1795453249       -4.9236125611      -20.4596659594
 H         8.0971757357       -3.3680188232      -18.7443991572
 H         7.7108201812       -5.0892496305      -18.3029531749
 H         6.4302940336       -2.4609984594      -13.7018596011
 H         5.4501704325       -4.0114885318      -13.9327473094
 H         4.5653542183       -1.1765118533      -13.4907236722
 H         4.8598949044       -2.3737201893      -12.1663320889
 H         2.9434175013       -2.6157510254       -8.9068132184
 H         1.8262507931       -3.6119292254       -9.7927349073
 H         0.1016643833       -1.5468573190       -9.6012358900
 H         1.3185544305       -0.7051694471       -8.6487702267
 H         0.4678327615        0.9466922421       -4.7922462714
 H        -0.6431662844       -0.2922082552       -4.0825326916
 H        -1.5856640370        2.0303237428       -5.7435984393
 H        -1.7955346280        1.9153773736       -4.1267571067
 H        -4.7499797318       -2.4248914018       -6.0472760663
 H        -3.8125374050       -1.5962582147       -7.1633337795
 H        -6.7495014131       -2.4501425697       -7.2678806510
 H        -5.5689152792       -3.1203827559       -8.3778520051
 H        -8.1853902478       -2.7475524524      -12.2209794350
 H        -9.6816687231       -1.8424413933      -11.6551994713
 H       -10.3329797220       -3.9735742399      -12.0068483283
 H       -10.3139071207       -3.6183814653      -10.3504900348
 H       -10.3888306960       -5.0836671858       -8.5265345028
 H        -8.6043036243       -4.7720191493       -8.6814027529
 H        -8.4103550413       -6.8663411173       -7.0606692147
 H       -10.0286798261       -6.3507741138       -6.5572017143
 H        -7.8454810819       -5.5957097596       -1.9366753143
 H        -9.5039854855       -5.5229623152       -2.3476691220
 H        -8.0551644951       -3.0511053866       -1.1905666110
 H        -8.8627158520       -4.2779311353        0.0502406710
 H       -13.0103915443       -0.4124954228       -1.2146737768
 H       -12.3885913997       -1.5139735867       -2.4061549957
 H       -12.0685294574        1.5670046869       -2.5771871702
 H       -12.9038655365        0.4534393866       -3.6233875529
 H       -11.7087553332        2.4768347165       -7.1792284327
 H       -11.5257456773        0.7420241766       -8.0141813783
 H       -10.7069019718        2.4449941531       -9.4847260564
 H        -9.3204467528        1.6155870497       -8.9445045884
 H        -5.5005139733        4.1400808295      -10.4157502443
 H        -6.0748768976        4.3656372885       -8.8417315306
 H        -6.5689683192        5.5967424686       -9.9081995682
 H       -10.6235543336        5.5107823500      -10.0921016904
 H       -10.3050951991        3.9202674445      -10.8594213863
 H        -9.2458340613        5.2780787435      -11.1916462663
 H        -9.3919540724        6.0576221259       -8.2448904528
 H        -8.2063733572        6.4156842228       -9.5027696927
 H        -7.7466577130        5.9558048583       -7.9140351971
 H       -10.7222078556        3.6881637944       -5.0940006683
 H       -11.1616834369        3.0754967183       -3.5534084249
 H       -12.1051305926        2.5640021396       -4.9816030965
 H        -8.2746409398        2.5574312268       -4.5821682013
 H        -8.3085142672        0.8316436289       -4.3205511176
 H        -8.9960336520        1.8161858364       -3.0445029167
 H       -12.3453587373       -1.1089498254        0.6022667887
 H       -11.6941449361       -2.5917800786        1.5061613265
 H       -12.5513431024       -2.7335416224       -0.2028714165
 H        -8.5373953831       -1.9872369492        0.5439420029
 H        -9.6937560068       -1.7284699823        1.8212225190
 H        -9.1273567635       -0.4339460901        0.6304267685
 H        -7.9758120979       -7.3005125003       -5.2217364785
 H        -9.1947445361       -6.9299962393       -4.1349227983
 H        -7.6030047710       -7.1308259449       -3.6393793641
 H        -5.8821901817       -5.7305755508       -4.5487352700
 H        -6.0717172876       -4.1177643062       -5.2699154561
 H        -6.5369445138       -5.5786941228       -6.1428351691
 H       -11.4026149041       -6.8194110628      -11.9307025406
 H       -11.4006124591       -5.2595645444      -11.0742386235
 H       -11.6140109066       -6.7712654572      -10.2075524914
 H        -8.0563327373       -7.9735763297      -11.6963274150
 H        -9.3181152848       -7.4761469423      -12.7915267689
 H        -9.6452138824       -8.5011211838      -11.4302986279
 H        -7.3590934034       -0.4455917935      -12.1322351434
 H        -5.8770846031        0.0793790519      -11.4903860335
 H        -7.4350928919        0.7105682172      -10.7464133369
 H        -4.7761638581       -2.7813752259      -10.6153380348
 H        -5.5268048388       -2.0842003265      -11.9702618536
 H        -6.1929412745       -3.4553615810      -11.2546821916
 H        -4.0667459730        2.9854917318       -5.4787427076
 H        -4.5077708418        1.9143685345       -4.2026646482
 H        -5.6840039370        2.2381295153       -5.5379780978
 H        -3.0509412820        2.0830887938       -7.5054832396
 H        -4.6784020379        1.4764354481       -7.9390380930
 H        -3.2579515844        0.4022923148       -8.1260290123
 H        -0.5361241827       -3.5475166118       -5.7214542407
 H        -0.3938889410       -2.2611327721       -4.4902692457
 H         0.8636460205       -3.3860835754       -4.6951744636
 H         2.4719598226       -1.0994891614       -5.1402441957
 H         2.7072723987       -1.0264346081       -6.7730322854
 H         2.5588146532       -2.6389413216       -5.9458791325
 H         2.2733212256       -0.0108476260      -12.8246502455
 H         0.6211228019       -0.5130764675      -12.3156287308
 H         1.3246876565       -0.9382691545      -13.8795891768
 H         0.7878812726       -3.8001673700      -11.3547423698
 H         0.6289457278       -3.6132204288      -13.0603866216
 H        -0.0506429846       -2.4602741916      -12.0314983828
 H         8.6498495330       -3.3939945645      -16.3778120275
 H         7.6637098069       -4.6130414536      -15.5233658748
 H         8.0658789713       -3.0781126634      -14.7028930515
 H         7.5008020464       -1.3343665311      -17.5499250263
 H         7.2555030676       -0.9800706837      -16.0068646848
 H         5.8117568353       -0.9146207192      -16.9999900244
 H         3.9339915183       -4.1261250736      -21.2247543984
 H         5.2796443759       -4.6866592286      -22.0925067254
 H         3.9235577719       -3.8335692005      -22.9566807619
 H         6.3961325529       -0.9179703003      -22.7185198687
 H         5.1314269381       -1.5118802847      -23.8350383125
 H         6.7337512904       -2.3957054109      -23.4737322520
 H         5.0905656851        3.8728572152      -16.7733155772
 H         5.6078287106        2.1221691399      -16.6173025727
 H         3.9879693415        2.7789484848      -16.0846507410
 H         3.2830232761        4.6990841397      -18.6702305559
 H         2.1423222478        3.4288060134      -17.8938155455
 H         2.5332473754        3.4953480904      -19.5854592165
 Na       -8.2839659191       -1.4418782083       -5.2591223934
 Na        3.3347685996       -2.0478741098      -18.0755526407
