232

 C         5.5389081330        4.8138370057      -19.4006252884
 C         5.4583071665        3.3206903601      -19.2398868956
 O         6.1715051866        2.5738300474      -19.8197218914
 C         4.1572943889        2.6705567954      -18.3562064837
 C         3.9329304057        1.2547293289      -18.9024208214
 O         3.9006045595        0.3616360161      -18.0497313475
 C         3.4322716666        0.8788676438      -20.3118815906
 C         4.4596021494        0.0084119961      -21.1686825390
 C         4.2481184922       -1.4936428526      -21.0910263559
 O         3.3477447788       -1.8944097556      -20.3869682722
 C         5.2296310076       -2.3911819457      -21.9783461915
 C         6.4370805681       -2.6907519753      -20.8749686465
 O         7.0833989897       -1.8090723925      -20.3572498424
 C         6.6936805845       -4.1168303212      -20.3199943054
 C         7.2939517828       -3.9147023811      -18.8827961780
 C         6.1985748351       -3.3657454784      -17.8956977089
 O         5.0156191177       -3.3862481174      -18.3093053708
 C         6.6627149049       -2.7519382619      -16.5627597592
 C         5.4321821415       -2.7233436734      -15.4761098525
 O         4.3042538228       -2.5697495154      -15.8976021138
 C         5.6581435083       -3.1200620352      -14.0121420157
 C         4.6550601844       -2.4289569702      -13.0237251302
 C         3.2153082044       -3.0611257845      -13.0898339199
 O         2.9669325076       -3.9896680306      -13.7895037066
 C         2.0977737325       -2.5154471230      -12.2437265264
 C         2.6543747350       -2.0535587929      -10.8484645041
 O         3.5190675511       -1.1852559804      -10.7655274387
 C         2.0864237665       -2.5936615690       -9.5613667170
 C         0.9076026569       -1.7294380014       -8.9945084162
 C         0.3497522666       -2.5138990997       -7.7835307465
 O        -0.1772352236       -3.5638938854       -7.9582554280
 C         0.5603797668       -1.8365573906       -6.3911326012
 C        -0.2699875233       -0.5433919254       -6.3464442975
 O        -0.7859869227       -0.0125875652       -7.3188305928
 C        -0.3922504594        0.1334028379       -4.9716379315
 C        -1.7356191259        0.8997646464       -4.6824266498
 C        -2.9018457415        0.0400877020       -5.1087204769
 O        -2.9438528449       -1.1446008319       -4.8228973762
 C        -4.0776007343        0.7444255250       -5.9562335604
 C        -5.1839033089       -0.3246428304       -5.9711028444
 O        -6.2543173705       -0.0567242836       -5.4451233177
 C        -5.0013202155       -1.6716413828       -6.7436332785
 C        -6.0822453270       -2.2214215982       -7.6961374138
 C        -6.4800085743       -1.0855910459       -8.6930277362
 O        -6.1932494834        0.0889221884       -8.3509606019
 C        -7.0541881781       -1.3753252333      -10.0731885077
 C        -8.3492055643       -2.3095842931      -10.1986903341
 O        -8.7788694321       -2.7477110531       -9.1031490966
 C        -8.9580887245       -2.6053129217      -11.5900163915
 C        -9.9198261979       -3.8591530472      -11.5929480138
 C        -9.0722495344       -5.1155420947      -11.2621809505
 O        -7.9267944616       -5.0882105011      -11.6233106160
 C        -9.5157770213       -6.4195095892      -10.6882847811
 C        -8.9469454156       -6.5302084902       -9.1549207289
 O        -8.3221804670       -7.5049450910       -8.8645101103
 C        -9.1502364334       -5.3043255567       -8.1267802279
 C        -9.0865225761       -5.9038889258       -6.7547618802
 C        -8.6394812284       -4.7884552967       -5.7391323845
 O        -8.8904721285       -3.6043696132       -6.0069137773
 C        -7.7740463849       -5.1525365015       -4.6190272629
 C        -8.0334747508       -4.1491027664       -3.3827793714
 O        -7.7746417063       -2.9362790365       -3.3610201988
 C        -8.4944324273       -4.7602230759       -2.0079745079
 C        -8.8774434262       -3.7784834453       -0.9508431169
 C       -10.2428953018       -3.1044381785       -1.2208230259
 O       -11.0896525660       -3.6063423146       -1.9223644208
 C       -10.5300120208       -1.8350237334       -0.3028916490
 C       -10.7793898271       -0.6513357216       -1.3690662011
 O        -9.9437589446        0.2303591981       -1.5618037336
 C       -12.0392540651       -0.7034904532       -2.2638125798
 C       -12.0631982656        0.4188125511       -3.2161679172
 C       -10.8053389509        0.4046760971       -4.0544958437
 O       -10.3437438163       -0.7468762715       -4.3037567693
 C       -10.2280628500        1.6860710318       -4.7042991366
 C       -10.1549319765        1.2942218869       -6.2611919436
 O        -9.6898129100        0.2745777369       -6.6725658611
 C       -11.0018090410        1.9419197826       -7.3300106836
 C       -10.0972764540        2.3890677824       -8.5674286258
 C        -9.4853694323        3.7238568176       -8.2040462243
 O        -9.5898518072        4.2040582196       -7.1163468178
 C        -8.8063573263        4.5879912567       -9.3412321020
 C        -7.6492712232        3.8198162389      -10.0599494498
 O        -7.9332488910        2.6368771050      -10.3199754245
 C        -6.3519656177        4.4693350249      -10.3357556521
 C        -9.9206967578        4.8194628606      -10.5670733365
 C        -8.4558612941        5.9953010468       -8.8949007541
 C       -11.0898685377        2.9303020178       -4.5554200947
 C        -8.7601628163        1.8552027259       -4.1546364330
 C       -11.7760265174       -2.2309726471        0.5512389957
 C        -9.4086909865       -1.2954157337        0.6040307934
 C        -7.8909317378       -6.6365986638       -4.2506302868
 C        -6.2110618098       -4.9634329065       -4.9148098804
 C       -11.0750978861       -6.6087367172      -10.6080245879
 C        -8.9395119919       -7.5335070493      -11.5817198297
 C        -7.2177645618       -0.0574908504      -10.8778610331
 C        -5.9014856768       -2.3157790893      -10.6493004851
 C        -4.4825313164        2.0645403739       -5.2061071490
 C        -3.5645709720        1.0963978920       -7.3673823630
 C         0.0339945124       -2.9538808462       -5.3691906331
 C         2.0503116827       -1.4174664613       -6.0827759467
 C         1.7005492366       -1.1138597302      -12.9190739793
 C         0.8127741633       -3.3759507737      -12.1725792618
 C         7.8746271635       -3.5244080269      -15.9783742334
 C         7.0212792128       -1.3455213898      -16.9369074347
 C         4.3791901087       -3.5113867143      -22.4330008960
 C         6.0085610591       -1.6000952855      -23.0158753997
 C         4.4713751331        2.6132269522      -16.7294607925
 C         2.8582775025        3.4995144763      -18.4762066827
 H         5.8128169060        5.1383488500      -18.4346584303
 H         4.6318234046        5.2108911420      -19.6808183014
 H         6.2986544770        5.2300880839      -20.0769866232
 H         3.1169787283        1.7921744371      -20.8921979651
 H         2.4831787216        0.3921435666      -20.1935842027
 H         5.4806387441        0.0682222073      -20.7859952040
 H         4.3166832981        0.4305161902      -22.1870273462
 H         7.4987973867       -4.6016690225      -20.9003817742
 H         5.7413684483       -4.6997571116      -20.3650986891
 H         7.9560440094       -3.2152960498      -18.8010252709
 H         7.6271630534       -4.9380710402      -18.5600305523
 H         6.6771818167       -2.8474995692      -13.7099617340
 H         5.3733209352       -4.1687765612      -13.8459782700
 H         4.5392062703       -1.3663710612      -13.2625550627
 H         5.0485830349       -2.5439695872      -12.0198312186
 H         2.9770063545       -2.5919047412       -8.9477226978
 H         1.9371115332       -3.6397405208       -9.7940609229
 H         0.1557183959       -1.6103534807       -9.7496904202
 H         1.3044806735       -0.7265886505       -8.6928409088
 H         0.5271244252        0.8349621318       -5.0209073944
 H        -0.2365082249       -0.5879428524       -4.1967393481
 H        -1.8041657443        2.0089867123       -5.0033439143
 H        -1.8252896029        0.9360130371       -3.5691999619
 H        -4.6123027249       -2.3848070267       -5.9681443651
 H        -4.0609754630       -1.6790327820       -7.3643816800
 H        -6.9928450777       -2.5945521260       -7.2993323425
 H        -5.8244811838       -2.9755736596       -8.3460578147
 H        -8.3237575228       -2.9419164018      -12.3713396931
 H        -9.5685493158       -1.7799532058      -11.8984060957
 H       -10.2939375885       -3.9380435953      -12.6548722123
 H       -10.8373800389       -3.6261793474      -10.9707745879
 H       -10.1180569670       -4.8002776663       -8.2117384123
 H        -8.2448556052       -4.7829771581       -8.3886427012
 H        -8.4752568963       -6.8159084114       -6.7648037806
 H       -10.0195001356       -6.3188918070       -6.5427756299
 H        -7.6819396211       -5.3682502677       -1.6838784050
 H        -9.3305609701       -5.4413966726       -2.2244351402
 H        -8.3339544366       -2.9189434933       -1.1058649505
 H        -8.9603239917       -4.2454385629        0.0368583832
 H       -12.9766447676       -0.7402100733       -1.7505060715
 H       -12.0085592334       -1.7125131410       -2.6957391702
 H       -12.1328877248        1.4151785863       -2.7426332456
 H       -12.9256427999        0.2935819230       -3.8153566208
 H       -11.5941025127        2.7428957082       -6.9489944906
 H       -11.6663128103        1.1324526635       -7.6814596890
 H       -10.7799284260        2.6427306889       -9.4689536579
 H        -9.5089051120        1.5800058044       -9.0082256831
 H        -5.6697902078        3.8105129223      -10.8452599738
 H        -5.9290323108        4.8877359588       -9.4005524760
 H        -6.5889359929        5.4201739653      -10.8785016425
 H       -10.9711058391        4.8982962714      -10.1717412635
 H        -9.8600537568        3.9618078855      -11.2270858234
 H        -9.6998794563        5.6569177511      -11.1749084722
 H        -9.3275574873        6.4664069765       -8.3868034942
 H        -8.0432879309        6.5567126919       -9.7906143288
 H        -7.6660015916        5.9491529486       -8.1013275399
 H       -10.6544456008        3.6973893695       -5.2879127390
 H       -11.1169758935        3.3515053047       -3.5386864609
 H       -12.0009783964        2.5410563266       -4.9490136805
 H        -8.2142129595        2.6749360738       -4.6277434561
 H        -8.2300919223        0.9398055064       -4.3861721823
 H        -8.6915457371        1.9497758160       -3.1180427115
 H       -12.0865212994       -1.5761890455        1.2889084958
 H       -11.4825718924       -3.1798510900        1.0541362902
 H       -12.4837269006       -2.4318412516       -0.2331000715
 H        -9.2589427822       -0.2374828812        0.5325965317
 H        -8.4459015075       -1.7969816701        0.5070090304
 H        -9.6345632925       -1.3562239638        1.6624333798
 H        -7.5268302670       -7.3385893023       -5.0407271714
 H        -8.8716448281       -7.0093160464       -4.0758530353
 H        -7.3709560076       -7.0034271388       -3.3566627041
 H        -5.7216022235       -5.0691682252       -3.9193254166
 H        -6.0065751746       -4.0500522923       -5.4949019644
 H        -5.7979614465       -5.7381948708       -5.5386605877
 H       -11.6548273097       -6.1707194110      -11.4290499061
 H       -11.3759108629       -6.1326022674       -9.6434257027
 H       -11.3621175503       -7.6215203272      -10.7186273339
 H        -7.8405277084       -7.4709341723      -11.8306500999
 H        -9.4863058386       -7.6113786339      -12.5475774578
 H        -9.0950542879       -8.4755403640      -11.0111529333
 H        -7.5122146419       -0.3054579014      -11.8694003379
 H        -6.2557821705        0.4908858528      -10.9405391830
 H        -8.0681763851        0.4688554610      -10.3984841354
 H        -4.8652882292       -1.9330985595      -10.5773330062
 H        -5.9176669442       -2.5644777730      -11.6827237756
 H        -5.8564076944       -3.3327102727      -10.1317543061
 H        -3.7355256361        2.8330087503       -5.5298535465
 H        -4.3745925750        2.0150808817       -4.1180304036
 H        -5.5372952663        2.2858132724       -5.4325412058
 H        -2.5903708439        1.5246446815       -7.3747940032
 H        -4.3006930087        1.6237461367       -7.9583437523
 H        -3.4288401816        0.1310652094       -7.8546272824
 H         0.5646857443       -3.9904952342       -5.5649492341
 H        -0.9873911930       -2.9029866259       -5.6232501941
 H         0.1344573939       -2.5958180274       -4.3153916507
 H         2.2484142910       -1.3268000388       -4.9942530979
 H         2.3792466368       -0.5346440750       -6.7191090787
 H         2.7637334980       -2.2785561153       -6.2713292480
 H         2.5169083835       -0.5367860061      -13.2392952936
 H         1.0971287375       -0.4138542728      -12.1823584266
 H         1.1855410450       -1.4141226073      -13.8502120342
 H         0.9431354052       -4.4381477457      -12.0389417593
 H         0.1471098369       -3.2578980007      -13.0192320833
 H         0.1839851609       -3.0783660787      -11.3028325834
 H         8.4989275106       -4.0545414504      -16.5933246184
 H         7.5435342955       -4.2470668548      -15.3190190932
 H         8.4732264493       -2.8122346262      -15.3993266800
 H         8.0947919816       -1.1676140159      -17.1874970894
 H         6.7847191201       -0.6524487738      -16.1609482260
 H         6.4057782323       -0.9679503176      -17.7757539283
 H         4.0352166819       -4.0955395421      -21.5136187260
 H         4.9277744983       -4.1332703079      -23.1030616510
 H         3.4884122762       -3.1994232746      -23.0622429901
 H         6.7360879560       -1.0747955552      -22.4212763750
 H         5.4556687779       -0.9058572568      -23.6977047794
 H         6.6191029070       -2.2576855389      -23.5797339010
 H         4.2596048184        3.5393980351      -16.2519239680
 H         5.5773239851        2.5079411751      -16.7015647488
 H         3.9458321807        1.8123668696      -16.2191054419
 H         2.8618061239        4.4844909252      -17.9574295166
 H         2.0582866364        2.8637903034      -18.1442091692
 H         2.5505064365        3.6986308893      -19.4423240225
 Na       -8.3055109349       -1.4655588472       -5.4792152722
 Na        3.6320368048       -1.9203319847      -18.0007850516
