232

 C         5.3323749497        4.8319174476      -19.3894341606
 C         5.3329645844        3.3350083786      -19.2478475343
 O         6.2016780600        2.6287637580      -19.6818530271
 C         4.1872704663        2.6474037279      -18.4023206203
 C         3.8328024073        1.2487979304      -18.9090628566
 O         4.0971734157        0.2632186743      -18.1236898357
 C         3.3511802262        0.9856698454      -20.2952231264
 C         4.4093845321        0.2742111282      -21.1986973755
 C         4.2742468596       -1.3463873298      -21.0640527865
 O         3.4977776229       -1.9181082948      -20.3444481297
 C         5.2171469003       -2.2774050781      -21.8622035261
 C         6.2633017973       -2.6580974946      -20.8285362928
 O         7.0483345071       -1.7691379050      -20.5484559300
 C         6.5348907532       -4.1171948447      -20.2682574146
 C         7.1919418554       -4.0172469499      -18.9189182305
 C         6.1407536555       -3.4161890110      -17.9785418927
 O         5.0334324404       -3.3401390617      -18.3405164075
 C         6.6708241720       -2.7568371684      -16.5787613752
 C         5.4958168779       -2.7922757228      -15.5375992730
 O         4.3828731264       -2.4342816406      -15.9308895337
 C         5.7131542662       -3.2467253767      -14.1171930531
 C         4.7411798275       -2.5651710580      -13.1141331737
 C         3.3121695476       -3.1090917533      -13.0953161626
 O         3.0453912345       -4.1381497648      -13.7775018965
 C         2.0955003773       -2.4240442840      -12.2097523457
 C         2.6384448908       -1.9900282871      -10.8263385970
 O         3.5224703071       -1.1532695125      -10.7114311000
 C         2.0204443140       -2.7741286055       -9.5754228383
 C         0.9777939565       -1.8160608000       -9.0560399293
 C         0.3623897254       -2.5149884641       -7.8394028940
 O        -0.1945679376       -3.5870354096       -7.9331554354
 C         0.5152101408       -1.8563597757       -6.4551471588
 C        -0.3492097586       -0.5133217816       -6.3383433144
 O        -0.7587952855        0.0018583542       -7.3797060277
 C        -0.4346610751        0.1064655897       -4.8667208257
 C        -1.6835363151        0.8806652116       -4.6246954964
 C        -2.8643202636       -0.0036945299       -5.0619659009
 O        -2.9027638589       -1.2061200022       -4.7858278445
 C        -4.0667756217        0.5969959080       -5.9183298643
 C        -5.2472898955       -0.3609343158       -6.0176154946
 O        -6.3204822511       -0.2014078289       -5.3854186154
 C        -5.0359595620       -1.7475214914       -6.7578763113
 C        -6.3034307664       -2.1512684648       -7.4636895529
 C        -6.6235432536       -1.0799001038       -8.6119861935
 O        -6.1206305739        0.0147551696       -8.4321970130
 C        -7.1532313969       -1.4189314286      -10.0629836429
 C        -8.3957623085       -2.3411948343      -10.1530436228
 O        -8.8496124842       -2.8469218918       -9.1402697597
 C        -8.9894129451       -2.5388529689      -11.5030931212
 C        -9.9185181831       -3.8181735414      -11.5343993481
 C        -9.0535961444       -5.0721253355      -11.3323707921
 O        -7.8555527463       -4.9965151583      -11.5948779308
 C        -9.5751027184       -6.4372593457      -10.5417475058
 C        -8.8730746822       -6.4892485491       -9.1395518028
 O        -8.1521393036       -7.3886860573       -8.7985976431
 C        -9.1745989206       -5.4116003664       -8.1246832609
 C        -9.0288309939       -5.8978431596       -6.6508381848
 C        -8.5441681441       -4.7227428077       -5.6463522160
 O        -8.8539218431       -3.6103375252       -5.9225736055
 C        -7.5894280861       -5.1308553500       -4.4367442775
 C        -7.9421743903       -4.1602438066       -3.3050295967
 O        -7.8697105047       -2.9282871570       -3.3937527009
 C        -8.5102800898       -4.7825460999       -2.0267081734
 C        -8.7135955734       -3.6854193690       -1.0690251637
 C       -10.2041894920       -3.0255670683       -1.1572080666
 O       -11.0453072819       -3.6593387796       -1.7913010565
 C       -10.6067386021       -1.7983896946       -0.3181630507
 C       -10.8331137060       -0.6833017688       -1.3853067340
 O        -9.9681379711        0.1372803456       -1.6368237139
 C       -12.1330232576       -0.7568389097       -2.1942611668
 C       -12.0794877273        0.3489490936       -3.2433081014
 C       -10.7205258625        0.3002761255       -4.1321182915
 O       -10.1320972233       -0.7490284053       -4.2668677193
 C       -10.2359765670        1.5935938151       -4.8432419903
 C       -10.2673435208        1.2458986644       -6.3977210804
 O        -9.5007255003        0.3075441064       -6.7218533281
 C       -11.0666478118        2.0942105001       -7.4594582702
 C       -10.1249573424        2.5594837335       -8.5497595865
 C        -9.5841571883        3.9238419645       -8.2415768133
 O        -9.5263596623        4.3551335791       -7.1169363828
 C        -8.8775370811        4.6857476488       -9.3976782553
 C        -7.7635688254        3.7484301417      -10.0023999111
 O        -7.9586745808        2.5685821336      -10.3882269361
 C        -6.5229117524        4.4936455799      -10.4351695902
 C        -9.8553031307        4.8626594437      -10.6189921535
 C        -8.4385333466        6.1045147650       -8.9079734779
 C       -11.1083371087        2.8641798370       -4.3809727464
 C        -8.7243180233        1.8072182288       -4.3686283954
 C       -11.8557215924       -2.2284784981        0.4707176365
 C        -9.3542500599       -1.3190381636        0.5693530320
 C        -7.7448385980       -6.6474834099       -4.0213622218
 C        -6.1663590794       -4.9439040528       -4.9415832326
 C       -11.1682400354       -6.6067962649      -10.4611586635
 C        -8.9137773558       -7.5103519175      -11.4006550862
 C        -7.2638069408       -0.2298624503      -11.0057231401
 C        -5.9115656302       -2.1565399153      -10.7675063743
 C        -4.4756662768        1.9068750795       -5.1871475066
 C        -3.5234433159        0.9655721838       -7.2655911176
 C         0.0738737138       -3.0137611283       -5.4294080649
 C         1.9011632427       -1.4440773781       -6.0395051910
 C         1.6461065449       -1.1872874433      -13.0977094451
 C         0.9956691579       -3.4383902405      -12.1092293728
 C         7.9174947807       -3.4932177974      -15.9519370366
 C         7.0979597153       -1.2796174007      -16.9774489154
 C         4.5601670362       -3.6159212908      -22.4047069504
 C         5.9398603767       -1.3663920307      -23.0256190413
 C         4.4871520318        2.6044495955      -16.9597625822
 C         2.8425786834        3.4975332457      -18.5227330092
 H         5.9012019725        5.3352032266      -18.5257307387
 H         4.2850249648        5.1251393916      -19.3456060369
 H         5.6823530139        5.2641361001      -20.2747701793
 H         2.9792450568        1.8930902831      -20.7736899971
 H         2.4154843455        0.4161916683      -20.2972939245
 H         5.4281037582        0.4754016835      -20.8964360164
 H         4.0928908616        0.6912559987      -22.1918425427
 H         7.3171915016       -4.6066819830      -20.8686107287
 H         5.5886544623       -4.5929063706      -20.3749593139
 H         8.0267728866       -3.2100958975      -18.8865062107
 H         7.4867732718       -4.9602756546      -18.5987689921
 H         6.7552181759       -2.9516092315      -13.8545075508
 H         5.4930727895       -4.2674534297      -13.9063794253
 H         4.5964482201       -1.5183998182      -13.3188262037
 H         5.1433680086       -2.6478487348      -12.1067283276
 H         2.8897543290       -2.9923312615       -8.9699467550
 H         1.6426410351       -3.7532045243       -9.8696107622
 H         0.2151970905       -1.8849001486       -9.9008214401
 H         1.3446086289       -0.7378541304       -8.9107555707
 H         0.3673336283        0.8299744392       -4.7690666141
 H        -0.2297407093       -0.7123101917       -4.1600657530
 H        -1.6028598941        1.8118531411       -5.2193749662
 H        -1.7188726539        1.1874821829       -3.5471561518
 H        -4.6915135930       -2.4258094802       -5.9419678412
 H        -4.2264339458       -1.9030833025       -7.4652306071
 H        -7.2215103494       -2.2447807851       -6.9392463171
 H        -6.2871826882       -3.0736995040       -8.0356753682
 H        -8.3674032207       -2.8207117683      -12.3337406770
 H        -9.6375876555       -1.6432230994      -11.7668690982
 H       -10.3886134400       -3.8636426003      -12.5320195711
 H       -10.7855025928       -3.7066025031      -10.7636233642
 H       -10.1175129226       -4.9061311923       -8.2637183818
 H        -8.2964483389       -4.8887712602       -8.4175950501
 H        -8.4768825026       -6.8195145087       -6.6151075186
 H       -10.0063863453       -6.2432165088       -6.3299141677
 H        -7.7207722454       -5.4932896411       -1.5938650841
 H        -9.3862879757       -5.3091633410       -2.2155079963
 H        -8.0245283686       -2.8535777589       -1.2892622153
 H        -8.7685978197       -4.2811473556       -0.1320752001
 H       -13.0562071648       -0.6747610871       -1.5666556748
 H       -12.2282973372       -1.7947760859       -2.5193799077
 H       -12.1713039351        1.3138154986       -2.8157786888
 H       -12.9138851309        0.2294847741       -3.8436851946
 H       -11.6751871835        2.8766243470       -6.9024078191
 H       -11.7987369725        1.3042286828       -7.9595415246
 H       -10.5035802999        2.4630908102       -9.5871947094
 H        -9.2596017455        1.8202035269       -8.6073555879
 H        -5.7289874549        3.8235640847      -10.9193137482
 H        -6.1385603993        5.1243229304       -9.6692054433
 H        -6.9084657198        5.2595806682      -11.1633093900
 H       -10.8644719864        4.8562751371      -10.3973516792
 H        -9.5845612795        3.9960953033      -11.2925374800
 H        -9.6878580735        5.7341111001      -11.1976351420
 H        -9.4179626591        6.5675284193       -8.6905746085
 H        -7.9210675207        6.6996801042       -9.6557438566
 H        -7.9156753855        6.0822062117       -7.8942528095
 H       -10.7256782607        3.7053308060       -4.8534773221
 H       -11.0234654253        2.9737022859       -3.2929168192
 H       -12.0930737280        2.6377959662       -4.7274510833
 H        -8.3528235317        2.7264855792       -4.7700600755
 H        -8.0627548399        1.0267496771       -4.6213818037
 H        -8.6559487177        1.9109113531       -3.2395408844
 H       -12.2922587605       -1.3888342603        1.1055569529
 H       -11.4481224698       -2.9276583685        1.2121681275
 H       -12.5365188488       -2.7010671685       -0.2362285718
 H        -9.4891448893       -0.4270889063        1.0722368666
 H        -8.4397247529       -1.2683331696        0.0028463653
 H        -9.1359798777       -1.9714905849        1.4120485693
 H        -7.5649994702       -7.3637826473       -4.7878403019
 H        -8.6937444865       -6.9899675507       -3.6172338527
 H        -7.0555440250       -6.9875231396       -3.2052007579
 H        -5.4553169623       -5.2229907346       -4.2341637256
 H        -6.0586145749       -3.9765890405       -5.3462846322
 H        -6.0230986323       -5.5833072507       -5.8811278125
 H       -11.6778812733       -5.9295391513      -11.1473652639
 H       -11.4714293547       -6.3138658395       -9.4832717539
 H       -11.5857213748       -7.5894171482      -10.8364553425
 H        -7.9381396942       -7.1265972530      -11.7242384500
 H        -9.4634440228       -7.7111071996      -12.3679651643
 H        -8.6966060364       -8.4704323582      -10.8565797589
 H        -6.9570058663       -0.3820873106      -12.0680336839
 H        -6.6071352694        0.5136021667      -10.5423119939
 H        -8.2848739534        0.0426122630      -10.9323211988
 H        -5.0151834992       -1.4881680545      -11.0605542845
 H        -6.1221748303       -2.5803930709      -11.7277999117
 H        -5.4609212643       -3.0337440701      -10.2446437956
 H        -3.6145939351        2.6087184093       -5.0638320872
 H        -4.7576446109        1.5694769137       -4.1440635536
 H        -5.4305819532        2.3115235172       -5.6144266301
 H        -2.7515220182        1.6554064950       -7.2291876245
 H        -4.3769769854        1.3760148131       -7.7992814131
 H        -3.1457574585        0.0999097214       -7.8640008098
 H         0.9395679643       -3.6544044568       -5.2421330803
 H        -0.7506321518       -3.5114328569       -5.9377942395
 H        -0.2992276402       -2.5578121961       -4.5490501773
 H         2.0010094733       -1.1559908462       -4.9359048340
 H         2.3239643213       -0.8318952223       -6.7599497886
 H         2.5952531910       -2.3837409319       -5.9856590206
 H         2.5287997004       -0.4858600566      -13.2588106323
 H         0.8408939669       -0.5319520512      -12.7602040337
 H         1.5266281203       -1.6578138048      -14.0344621093
 H         1.4474279371       -4.4225666536      -12.0481612265
 H         0.3646065001       -3.4970150378      -12.9713073904
 H         0.2959105698       -3.4409738263      -11.2677808866
 H         8.6789517204       -3.6442359209      -16.6928077499
 H         7.6880065702       -4.5513519051      -15.8041172864
 H         8.3787210856       -3.0587376610      -15.1275976035
 H         8.0650853828       -1.3430419834      -17.4303745554
 H         7.1318102503       -0.6269180435      -16.1478680530
 H         6.4448158530       -0.7465948521      -17.6942596160
 H         4.2758080097       -4.2483524712      -21.5885395400
 H         5.2380279820       -4.0758571609      -23.1256098108
 H         3.6322290014       -3.4149401153      -23.0592320301
 H         6.3816948305       -0.4178574137      -22.6638308437
 H         5.2063158543       -1.2147407074      -23.8606706160
 H         6.7244017323       -1.9505607172      -23.3949643314
 H         4.3471492478        3.6203572021      -16.5535582688
 H         5.4610002686        2.2742903758      -16.6596993113
 H         3.6708511330        1.9921622976      -16.5411057272
 H         2.7944808517        4.5674074113      -18.1411122689
 H         2.0604357869        2.9292500975      -18.0679833994
 H         2.4229391458        3.4627876916      -19.5946497294
 Na       -8.3797136837       -1.3920286492       -5.3036692290
 Na        3.5763692321       -1.7932672890      -18.0964035179
