232

 C         5.1525331943        4.9414773936      -19.4951450395
 C         5.1878584491        3.4256135302      -19.2348135210
 O         6.1110646299        2.6960487506      -19.4935864710
 C         3.9561257537        2.8322146823      -18.4049225044
 C         3.8730409301        1.2694561462      -18.9008316017
 O         4.4027838858        0.3803731559      -18.3343710099
 C         3.2772238595        0.9518865433      -20.2862642430
 C         4.2663009390        0.2004878643      -21.3088796358
 C         4.1896774078       -1.3237087908      -21.1107991721
 O         3.3820001320       -1.8476692501      -20.3290482329
 C         5.2670409358       -2.1357634882      -22.0171081049
 C         6.5461386524       -2.4456169476      -20.8980813053
 O         7.3060445095       -1.6480864699      -20.4486801345
 C         6.5387880052       -3.9179594401      -20.4897052921
 C         7.1919887030       -4.1107548141      -19.0864036965
 C         6.1894712646       -3.4594360881      -17.9442295118
 O         4.9537882567       -3.4557237889      -18.2661490519
 C         6.7847859731       -2.7902151697      -16.6485836144
 C         5.5027328264       -2.6747506897      -15.6261448722
 O         4.5005537541       -2.0597451937      -15.9466311218
 C         5.6770963528       -3.3096656217      -14.2489395642
 C         4.7984144026       -2.6386383945      -13.1959277890
 C         3.4107137770       -3.3581031661      -13.1747255112
 O         3.3032135839       -4.4041051927      -13.7050748221
 C         2.2427862040       -2.6045727636      -12.2963898828
 C         2.6963742506       -2.0667578529      -10.8813983616
 O         3.4951111813       -1.1527458752      -10.9587704230
 C         2.2351797456       -2.6952616098       -9.6056687538
 C         1.0374999886       -1.8947459036       -8.9976724569
 C         0.3462397722       -2.6579939013       -7.8180999375
 O        -0.3072601308       -3.6332320005       -8.0656507754
 C         0.5239992294       -2.0318896235       -6.3723134785
 C        -0.2687332515       -0.6772599031       -6.2573115894
 O        -0.6682826308       -0.0449630556       -7.1892238885
 C        -0.3639143730        0.0854331721       -4.8072850418
 C        -1.7987414288        0.7914282578       -4.7656805537
 C        -2.9190527963       -0.2104833336       -5.0588327888
 O        -2.8909070129       -1.3504298578       -4.6942835170
 C        -4.2035211338        0.4263262115       -5.7672922085
 C        -5.3132767648       -0.5960508895       -5.9450301942
 O        -6.2743666088       -0.3127234275       -5.2727413136
 C        -5.2688057781       -1.8194143354       -6.7948672162
 C        -6.5390495606       -2.1268500804       -7.7247415787
 C        -6.6037981848       -1.0414540473       -8.8193085817
 O        -6.2055199587        0.1214395016       -8.6337199055
 C        -7.0590191940       -1.5273066568      -10.2240369645
 C        -8.3580797297       -2.3333389080      -10.1987697252
 O        -8.7921247928       -2.6387187427       -9.0798004657
 C        -9.2510240720       -2.5918240494      -11.3680087375
 C        -9.9976377451       -3.9470668535      -11.2523346175
 C        -8.9286424947       -5.1014711065      -11.1462832820
 O        -7.8009144246       -4.8989268511      -11.4615282092
 C        -9.4478430012       -6.3929082508      -10.4304509862
 C        -8.7850559200       -6.4843631700       -9.0356119398
 O        -7.8992631225       -7.2618232894       -8.7736423740
 C        -9.2534706425       -5.5258096766       -7.9155354299
 C        -8.9181915867       -6.0693843090       -6.5093147116
 C        -8.5124957925       -4.8782377592       -5.6133399799
 O        -8.7228060815       -3.6955065452       -5.8605158384
 C        -7.4697292428       -5.1632563210       -4.3560425095
 C        -7.9093848821       -4.1560140976       -3.2776159459
 O        -7.8051669876       -2.9550017403       -3.4853858822
 C        -8.3193326486       -4.7195086198       -2.0084537518
 C        -8.6664599018       -3.5592385293       -0.9190867010
 C       -10.0969937084       -3.1401403588       -1.0086645529
 O       -10.8850990594       -3.7761161417       -1.6606627169
 C       -10.5951643419       -1.7435578333       -0.1913940080
 C       -10.7898499025       -0.7285713595       -1.4438755465
 O        -9.9870073594        0.1776817812       -1.6078999308
 C       -12.1500134679       -0.8245946467       -2.2449453202
 C       -12.2319682487        0.1670278457       -3.3952214830
 C       -10.8534362635        0.1702427944       -4.0535946652
 O       -10.2018477975       -0.8954546032       -4.0131073753
 C       -10.1791776260        1.5195928085       -4.8035754891
 C       -10.1842314950        1.2149426134       -6.4038904569
 O        -9.4573047772        0.3973283838       -6.8761132725
 C       -11.1105850328        2.0582652649       -7.3442077022
 C       -10.3330818819        2.7148020355       -8.4958153118
 C        -9.5247662112        4.0628890899       -8.3268889195
 O        -9.5813625360        4.5524239933       -7.2206410723
 C        -8.9478486925        4.8440948736       -9.5899974270
 C        -7.7819075485        3.9647273330      -10.1482225652
 O        -7.9939699242        2.7879606512      -10.2150743819
 C        -6.4864233190        4.5165287231      -10.6705786178
 C       -10.0812765767        5.0462628433      -10.6637428141
 C        -8.3824283104        6.2496997562       -9.0465221779
 C       -11.1234816355        2.7318279099       -4.5254348357
 C        -8.7068332604        1.8416938736       -4.5866943368
 C       -11.9922130781       -2.0004998094        0.5834461482
 C        -9.5453937152       -1.2089011642        0.7809116398
 C        -7.5218374714       -6.6654807814       -3.9478070953
 C        -6.0532467529       -4.8383780828       -4.9428746931
 C       -10.9764361747       -6.4089312925      -10.3026284506
 C        -9.0192445825       -7.6197455622      -11.2569952270
 C        -7.4941229067       -0.1747370834      -10.9491959184
 C        -5.8940394081       -2.3548547598      -10.8336895723
 C        -4.6926709480        1.6631360436       -5.0913561782
 C        -3.6627195175        0.8166657365       -7.1413564127
 C        -0.1282909782       -2.9729657960       -5.2773522781
 C         2.0121482542       -1.6493636915       -6.1583745015
 C         1.8353074566       -1.3149390825      -13.1583636250
 C         1.0652913224       -3.5833785208      -12.3607394354
 C         8.0182784027       -3.5683984405      -16.2053221407
 C         7.0816262275       -1.3143712932      -16.8990499570
 C         4.5648868330       -3.3198902020      -22.5604327204
 C         5.8678758148       -1.3610301280      -23.2062219117
 C         4.5509568308        2.8036700379      -17.0032613452
 C         2.6044853331        3.4281053214      -18.6105105161
 H         5.9635289534        5.4417507523      -18.9713092850
 H         4.2300047548        5.5141252275      -19.3290610241
 H         5.3835346628        5.2314459955      -20.6172469832
 H         2.6551649876        1.7286662392      -20.7341624672
 H         2.4530899668        0.2760561630      -20.0333564684
 H         5.2850684983        0.6100556884      -21.1242511427
 H         3.8952625055        0.4207184640      -22.2792016191
 H         7.1353445202       -4.3926763468      -21.2824160776
 H         5.4765667310       -4.1720625171      -20.6922884425
 H         8.0950543212       -3.6791357454      -18.9948343842
 H         7.1374549719       -5.2580750873      -18.8340435854
 H         6.7102234791       -3.2446019505      -13.9318187920
 H         5.3617589977       -4.4149290091      -14.3032812388
 H         4.8145378429       -1.5313817090      -13.3511144254
 H         5.2003905279       -2.7098812319      -12.1519050997
 H         3.0594006994       -2.9002377321       -8.8800179597
 H         1.8507836589       -3.6775544755       -9.9497664637
 H         0.2780984053       -1.8137914524       -9.7430073735
 H         1.2856561739       -0.9348850765       -8.6363965002
 H         0.4181084083        0.8908356130       -4.6529383294
 H        -0.1349254733       -0.5648853183       -3.9765792127
 H        -1.7691245937        1.5712068810       -5.5260562809
 H        -1.9527561907        1.1951912074       -3.7957908477
 H        -5.1453898047       -2.7219540649       -6.2218238852
 H        -4.3380553601       -1.7743678714       -7.3714170964
 H        -7.5205603591       -2.1294807037       -7.1577554222
 H        -6.4729644275       -3.1960335154       -8.1185754279
 H        -8.6583249786       -2.6864496635      -12.3032296041
 H       -10.0132048557       -1.8389814426      -11.4870553871
 H       -10.6296953005       -4.1328556683      -12.1125908365
 H       -10.5896079254       -3.7757097089      -10.4157868242
 H       -10.3426897581       -5.5171571271       -8.0053358145
 H        -8.7872248711       -4.4914133079       -8.0504640472
 H        -8.1275578979       -6.8783102003       -6.4994731915
 H        -9.7851195984       -6.5673334194       -6.0050539652
 H        -7.4881297219       -5.3087825049       -1.6813044374
 H        -9.2058056392       -5.4378647462       -2.3241031167
 H        -8.1366544115       -2.6175911055       -1.1493621522
 H        -8.6055238525       -4.0843840937        0.0219432251
 H       -12.9124047038       -0.7179471866       -1.4902686294
 H       -12.2963701908       -1.8737712877       -2.5549208608
 H       -12.4609017662        1.2515775905       -3.1472498026
 H       -13.0450609730       -0.1700694865       -4.1368633863
 H       -11.5733862537        2.8413429333       -6.8039334544
 H       -11.8769732332        1.4248116918       -7.6620217756
 H       -11.0569295607        2.8784523156       -9.2867076576
 H        -9.6743064132        2.0569218111       -9.0036860329
 H        -5.8260366199        3.7386829663      -10.9250452071
 H        -6.1000953983        5.2153276427       -9.8849535503
 H        -6.6143358691        5.1397061138      -11.5633374192
 H       -10.7978247223        5.8033426199      -10.1807702648
 H       -10.5232367112        4.1658047931      -11.0400385247
 H        -9.7334622034        5.6543869735      -11.5130219261
 H        -9.1729723093        6.9337630491       -8.8020533774
 H        -8.0416726850        6.7355087373       -9.9628769850
 H        -7.6719963389        6.1275671038       -8.2830191649
 H       -10.7434986601        3.6151437394       -5.1746030567
 H       -11.0217709051        2.9534382852       -3.4584525942
 H       -12.1834191158        2.5878608548       -4.7284766535
 H        -8.4546112658        2.8157419934       -5.0997717306
 H        -8.0772962680        1.0177772539       -5.0135151896
 H        -8.3806277779        1.9549923437       -3.5892075534
 H       -12.3955929379       -1.0227365940        0.7605341008
 H       -11.8806841484       -2.4532820438        1.6154296788
 H       -12.6015540223       -2.5864804927       -0.1735839278
 H        -9.8879493605       -1.2526894124        1.8438829305
 H        -9.2489660570       -0.1607747490        0.6260237874
 H        -8.5876923649       -1.7114033025        0.8349588534
 H        -7.1580226884       -7.3166175961       -4.7768827441
 H        -8.4162461289       -7.1616461033       -3.6273945998
 H        -6.8668992858       -6.8922992076       -3.1510648440
 H        -5.3081831660       -5.5107318606       -4.4281579169
 H        -5.7805357450       -3.7837275261       -4.7164785467
 H        -5.9587860686       -4.9598972737       -5.9565943539
 H       -11.4525864472       -5.8888786303      -11.1323991536
 H       -11.3895414870       -5.9022736161       -9.4008419262
 H       -11.3557521397       -7.3915586890      -10.3565680044
 H        -7.9625128064       -7.6679816374      -11.4807525469
 H        -9.4751176249       -7.5571064497      -12.1972809194
 H        -9.3059011149       -8.5120955139      -10.7847979740
 H        -7.1393967268       -0.1920225378      -11.9646939284
 H        -6.9739974999        0.6345294789      -10.3887299409
 H        -8.6190765854       -0.0619287114      -10.8431446231
 H        -5.0701616220       -1.7888974221      -11.0766012813
 H        -6.0151248616       -2.9752057447      -11.7153896209
 H        -5.5663309932       -3.1049652738      -10.1421631314
 H        -3.8792193954        2.2014941994       -4.6350041996
 H        -5.4627374211        1.4460393954       -4.4045472891
 H        -5.1769515830        2.2548835051       -5.8386996213
 H        -3.0021778035        1.7403611922       -7.1274751720
 H        -4.4513011148        0.9894887439       -7.8921626616
 H        -3.0051477454        0.0203478995       -7.4461202261
 H         0.7727696650       -3.2144775158       -4.6302827805
 H        -0.4128092719       -3.8504000155       -5.7585819989
 H        -0.9424740403       -2.4700086205       -4.7712133274
 H         2.0957276466       -1.2863429407       -5.1981329526
 H         2.3046452369       -0.9832712790       -6.9994408330
 H         2.6985616312       -2.4327912657       -6.3520185643
 H         2.3503558391       -0.5039082060      -12.8435603199
 H         0.7308841252       -1.1018689135      -12.9789520321
 H         1.9553193691       -1.4756304667      -14.2373686145
 H         1.1207944973       -4.4069393575      -11.6658169993
 H         1.1266070927       -4.0969274485      -13.3262369325
 H         0.0540024636       -3.2396481874      -12.2237932228
 H         8.9298254889       -3.4325834881      -16.8351774752
 H         7.9088190566       -4.6395592959      -16.3735662840
 H         8.3120537095       -3.3269515349      -15.1046857114
 H         7.3186445232       -1.1779067636      -17.9730742468
 H         7.7644856602       -0.8346368533      -16.1742562974
 H         6.1855639203       -0.7253069173      -16.8136147019
 H         3.7387619569       -3.5024083336      -21.8454533799
 H         5.1450480820       -4.1658724702      -22.8391623702
 H         4.0530307481       -3.1495719628      -23.4721302874
 H         6.3115989856       -0.4565962864      -22.7666300502
 H         5.0755817999       -1.0989847367      -23.9100633962
 H         6.6065454346       -1.9934267567      -23.7822430680
 H         5.2644333822        3.5968678540      -16.7722507950
 H         5.1928931361        1.8720559737      -17.0568925691
 H         3.7808226004        2.6486417701      -16.2432039546
 H         2.5694629649        4.2933267360      -17.9165960624
 H         1.7739273356        2.7761707891      -18.1659229479
 H         2.2437861817        3.6645843795      -19.5611272167
 Na       -8.2947349822       -1.2933717007       -5.0595517661
 Na        3.3225339803       -1.6935594249      -17.9643299679
