232

 C         4.9951504989        4.9785329384      -19.6763083754
 C         5.1356033283        3.5360428486      -19.3338075053
 O         6.0909259659        2.9281206782      -19.7184137954
 C         3.9445972775        2.8389928453      -18.3960772802
 C         3.8195319231        1.3211832059      -18.8058690089
 O         4.4654067485        0.3799673335      -18.2522314302
 C         3.2574736510        1.0218363655      -20.1943316641
 C         4.1594899253        0.3268499408      -21.2594661231
 C         4.1720815832       -1.2254165654      -21.2056157818
 O         3.5108143335       -1.7834394183      -20.3508467220
 C         5.3358159586       -2.0116384724      -22.0680811888
 C         6.4199569830       -2.4489801305      -21.1306525287
 O         7.1022253752       -1.5614464234      -20.6363910205
 C         6.6645808669       -3.9226381502      -20.5145544535
 C         7.0510769048       -3.9041863775      -19.1149648121
 C         6.0080243814       -3.3839663984      -18.1347095276
 O         4.8527763501       -3.4465498698      -18.2958129139
 C         6.6661031258       -2.7295004918      -16.7653852967
 C         5.6397614877       -2.5256698124      -15.6027884403
 O         4.5942673617       -1.8955407564      -15.7981761061
 C         5.8344591647       -3.2970823033      -14.2705781779
 C         4.8394230275       -2.7084857618      -13.2853358195
 C         3.5010130883       -3.4761734186      -13.1591732823
 O         3.3976940086       -4.6588995526      -13.4824937389
 C         2.2777261614       -2.6759440550      -12.4259282102
 C         2.6879018261       -2.1770760493      -11.0590676081
 O         3.5465506400       -1.3259980866      -11.0238951752
 C         2.1775891968       -2.7401697957       -9.6180872675
 C         1.0559906456       -1.9138968556       -9.0891696163
 C         0.4302164831       -2.5685006014       -7.8259345209
 O        -0.3308700967       -3.5443688305       -7.9447670778
 C         0.6028302080       -2.1305964489       -6.3958278089
 C        -0.1937463562       -0.6932047268       -6.2617617107
 O        -0.5618458021       -0.1464192519       -7.3010020892
 C        -0.4404395660       -0.1599119171       -4.8714921457
 C        -1.7754963509        0.5776059695       -4.7722304081
 C        -2.9948468681       -0.2968285261       -5.1158953738
 O        -3.0053245421       -1.4153528898       -4.6535854383
 C        -4.2313806063        0.3525543485       -5.7845436737
 C        -5.3185320478       -0.6687790657       -5.9002369567
 O        -6.2478683831       -0.5869972931       -5.1345124910
 C        -5.1643022260       -1.8175814526       -6.8670243163
 C        -6.3094835142       -2.0275199935       -7.8506662140
 C        -6.4839391429       -0.8929949005       -8.9274950225
 O        -6.3407958787        0.2400793569       -8.6665915179
 C        -7.1763290044       -1.3878500457      -10.3807130002
 C        -8.5286561022       -2.1309556900      -10.0423047648
 O        -8.8881748377       -2.5918929192       -9.0073819477
 C        -9.2429730913       -2.5697081612      -11.2904200060
 C        -9.9591721148       -3.9137286493      -11.0683124230
 C        -8.9829782273       -5.0730436762      -10.8477185599
 O        -7.8039167237       -5.0847612579      -11.2372981022
 C        -9.4791340189       -6.4982694439      -10.3219837561
 C        -8.7993683388       -6.5701782787       -8.9048402762
 O        -7.7192515320       -7.1007057505       -8.8179857215
 C        -9.4314348845       -5.8416278704       -7.7545619791
 C        -8.7203252946       -6.0607393247       -6.4538486750
 C        -8.3386491414       -4.8131997906       -5.5889515176
 O        -8.6842072889       -3.7268513255       -5.9719449664
 C        -7.3445189112       -5.1700403829       -4.3104125576
 C        -7.7077929701       -4.1886101489       -3.1285453987
 O        -7.5823051149       -3.0003754952       -3.2794580561
 C        -8.2452384895       -4.5761479852       -1.5493598642
 C        -8.6562596090       -3.3897026694       -0.7189317838
 C       -10.1633722334       -3.0009879265       -0.7599374716
 O       -10.9440673225       -3.6913235159       -1.3773806846
 C       -10.6296964287       -1.7039655208       -0.0883203806
 C       -10.7812566704       -0.6973696009       -1.3159525602
 O       -10.1366702589        0.2972017770       -1.4123393169
 C       -12.0765351431       -0.9004391955       -2.3209564987
 C       -12.0942121306        0.2078655378       -3.3690754940
 C       -10.7640155943        0.1800082047       -4.2360022831
 O       -10.1080784263       -0.7987705533       -4.3552094190
 C       -10.3306875102        1.5299398546       -4.7876685896
 C       -10.1568268646        1.1991905871       -6.4436046278
 O        -9.5816913250        0.1661214902       -6.8154969262
 C       -10.9370800212        2.0953931257       -7.3956706721
 C       -10.3183934827        2.8359512443       -8.6285540552
 C        -9.6376109258        4.1211103918       -8.3265571987
 O        -9.6770922421        4.5913399445       -7.1815327797
 C        -9.0567456141        4.9570629965       -9.6306575955
 C        -7.9184153928        4.0011118905      -10.2043676894
 O        -8.0047668429        2.7818038829      -10.2845287043
 C        -6.6775864660        4.7616404677      -10.7388778238
 C       -10.1555328150        5.2771584374      -10.7030914431
 C        -8.4298314701        6.2514502434       -9.1626094778
 C       -11.1715403043        2.8208304641       -4.4106014796
 C        -8.9709353309        1.7399739721       -4.1515868143
 C       -12.0494302165       -2.0994878657        0.4856901151
 C        -9.6487925616       -1.1264090615        0.9399633726
 C        -7.4312482227       -6.6084684618       -3.9358766718
 C        -5.8884358605       -4.7205682201       -4.7424329373
 C       -10.9634195230       -6.6289441212      -10.1949963229
 C        -8.9339387588       -7.6154665312      -11.2524511672
 C        -7.3396143942       -0.1986827928      -11.4066331296
 C        -6.2631382886       -2.3021850653      -11.1095750522
 C        -4.6934774306        1.6653995328       -4.9620090966
 C        -3.7465651701        0.7269321854       -7.1918969510
 C        -0.0272221575       -3.0964476107       -5.3826410156
 C         2.1677534896       -2.1213890876       -6.0185987711
 C         1.9435678412       -1.5982593623      -13.4340910917
 C         1.0966351341       -3.6487053640      -12.3636372981
 C         7.8925368499       -3.6324838359      -16.3544900319
 C         7.2661210947       -1.3348066845      -17.3210119359
 C         4.5699769299       -3.2583592910      -22.6395274246
 C         6.0536264421       -1.0942254842      -23.1134338367
 C         4.3056212417        2.8797345812      -16.9080660558
 C         2.5202623570        3.4985670139      -18.6136135323
 H         5.8465065283        5.5626004606      -19.3849183927
 H         4.1268516397        5.5367648311      -19.4243292647
 H         5.0385287283        5.0986209562      -20.6962085045
 H         2.7544584325        1.8992349518      -20.5871734692
 H         2.3556290591        0.3832979494      -20.1175411883
 H         5.1091861369        0.8363049708      -21.2379228896
 H         3.5614780763        0.5382600402      -22.1906482880
 H         7.4486878192       -4.3238374887      -21.1786143870
 H         5.7657099065       -4.4727242262      -20.6803042744
 H         7.9270970146       -3.1854492705      -18.7775465300
 H         7.2179336051       -4.8615146886      -18.8453901079
 H         6.8666635415       -3.1970264667      -13.8202345745
 H         5.6941419378       -4.3380941957      -14.5385560668
 H         4.7808769301       -1.6505295680      -13.4712371818
 H         5.2268936552       -2.6588373384      -12.2696678517
 H         2.9491599388       -2.6083958609       -8.8845215388
 H         1.9057503516       -3.7874932366       -9.5471415847
 H         0.1400243642       -1.8690932578       -9.7173986475
 H         1.3145430809       -0.8732583845       -8.8510283571
 H         0.4022203762        0.4651432983       -4.6183002054
 H        -0.3070401125       -0.9221806654       -4.0486243746
 H        -1.7426046570        1.5405038943       -5.3153271367
 H        -1.8960159279        0.6405090434       -3.6287731214
 H        -5.1016667194       -2.8432600533       -6.3818127640
 H        -4.2314789975       -1.6483789216       -7.4380224924
 H        -7.2148346785       -2.2519536444       -7.3416822041
 H        -6.0600818683       -2.9293559140       -8.3427314972
 H        -8.6139306690       -2.7365124882      -12.1396317016
 H        -9.9500886258       -1.7919156131      -11.6285132127
 H       -10.5258309084       -4.2628372339      -11.9593262379
 H       -10.5863595809       -3.6183599573      -10.1680864373
 H       -10.4705270895       -6.2340966565       -7.7687422375
 H        -9.4034496859       -4.7712344820       -7.9346522221
 H        -7.8558446677       -6.6837692742       -6.6174213762
 H        -9.3519714981       -6.6756521904       -5.8142030835
 H        -7.3555453860       -4.9561870969       -0.9407454399
 H        -8.9718626525       -5.2587153220       -1.6781594765
 H        -8.0854690588       -2.5098582333       -1.0121972369
 H        -8.5491288723       -3.7813496676        0.2757549914
 H       -12.9113548439       -0.7563993395       -1.6046312761
 H       -12.1597892305       -1.9289891939       -2.6244176899
 H       -12.0723589334        1.1154110162       -2.8437231844
 H       -12.9289048388        0.2845295043       -4.0253186219
 H       -11.6527162437        2.8199814533       -6.8704125646
 H       -11.6225188963        1.2992932905       -7.7886151119
 H       -11.1647014399        3.1578492807       -9.2776250472
 H        -9.6978732877        2.2692803879       -9.3920583955
 H        -6.1273493127        3.9850986555      -11.3391242818
 H        -6.0741689077        5.3040136485      -10.0544570796
 H        -6.9763086357        5.3872815147      -11.5826128526
 H       -10.7739623682        6.0918292466      -10.4542702810
 H       -10.7324682437        4.3814827432      -11.0180673658
 H        -9.6613879296        5.6103252223      -11.6321046748
 H        -9.1316962982        6.6978079454       -8.4433304385
 H        -8.3908254458        7.0435165293       -9.8817146431
 H        -7.5171746553        5.8783598096       -8.6481131413
 H       -10.6540816214        3.6325787440       -4.8668740635
 H       -11.2285738091        2.8925320933       -3.2931787110
 H       -12.2653851686        2.8356499441       -4.7717644343
 H        -8.5030408585        2.6136657882       -4.4751512829
 H        -8.2966818348        0.9210056949       -4.2400341903
 H        -9.0987597412        1.8894573498       -3.0513270072
 H       -12.5148948813       -1.2230259927        0.9973646677
 H       -11.7783468592       -2.7963834331        1.2316850845
 H       -12.6704981906       -2.5946103854       -0.2138596368
 H        -9.1838510350       -1.7358282231        1.7085504057
 H       -10.1322330097       -0.3386439373        1.5375023558
 H        -8.8436450417       -0.5671115096        0.4157555358
 H        -6.9747224726       -7.2798505454       -4.6285940538
 H        -8.4937182583       -6.9498352341       -3.8629086079
 H        -7.0224411925       -6.8771481979       -2.9256446543
 H        -5.1410386804       -5.1038627943       -4.0562684334
 H        -5.7749278588       -3.6330607225       -4.7408350864
 H        -5.6740371703       -5.1751220593       -5.7934627753
 H       -11.3512481969       -7.1953170081      -11.0552132673
 H       -11.5621423499       -5.7577721176      -10.2539647421
 H       -11.2584558595       -7.1303326631       -9.2116944465
 H        -7.8831412425       -7.7885666382      -11.1142304416
 H        -9.0525624951       -7.3802153216      -12.3299155721
 H        -9.4788632605       -8.5666712122      -11.0961515728
 H        -7.8877296803       -0.6440769628      -12.2925408334
 H        -6.3289984278        0.0107064449      -11.7324197293
 H        -7.7443148964        0.6497511616      -10.9228105190
 H        -5.2327438939       -1.8860675999      -11.2076731548
 H        -6.5025694108       -2.4860293519      -12.1867827311
 H        -6.1672210952       -3.3293774269      -10.8445204520
 H        -3.9198869619        2.3808040580       -5.1661786742
 H        -4.8478249970        1.4331432395       -3.8968111190
 H        -5.5986159813        2.1415265303       -5.3113313910
 H        -3.2007333350        1.6244566381       -6.9997318691
 H        -4.5467871553        1.0808070488       -7.8097384906
 H        -3.0680457273        0.0361224800       -7.6993182089
 H         0.1495415440       -2.6252647601       -4.4909905524
 H         0.5566632480       -4.1062536321       -5.3585280577
 H        -1.1171942230       -3.1490239176       -5.6489537864
 H         2.1481682919       -2.0130062557       -4.8723246102
 H         2.8029961388       -1.3829963497       -6.5428873378
 H         2.6671590800       -3.0368167483       -6.4123325029
 H         2.8825882103       -0.8759262127      -13.5421369914
 H         1.0758468384       -1.0365535662      -13.2468054017
 H         1.7241274537       -2.0999797704      -14.3975280270
 H         1.0268136574       -4.4100862270      -11.5729267794
 H         0.8752139888       -4.1916511672      -13.2768198689
 H         0.2270685615       -3.0146288936      -12.1745709986
 H         8.5162783984       -3.8558087581      -17.1846818937
 H         7.6832747851       -4.6289563672      -15.9972836025
 H         8.5050229655       -3.1682780991      -15.6997800672
 H         7.7037812089       -1.4473314357      -18.3085041519
 H         7.9097347514       -0.9754584045      -16.5096038689
 H         6.5484280837       -0.4991094554      -17.4385887436
 H         4.0583600711       -3.8473260528      -21.8742524344
 H         5.2592335402       -3.8955306707      -23.2925802462
 H         3.7359093340       -3.0321068555      -23.3304011719
 H         6.8607720963       -0.6313255116      -22.5865337277
 H         5.3937391976       -0.3144453896      -23.4299712297
 H         6.2893321287       -1.7355452449      -23.9604638256
 H         4.4596665057        3.9572294599      -16.7117194894
 H         5.1991729585        2.4498232509      -16.5753155433
 H         3.4267093291        2.4437018640      -16.4169050959
 H         2.3167580261        4.3438208569      -18.0525437281
 H         1.7107253971        2.9305269558      -18.2718946931
 H         2.3819205950        3.5769627809      -19.7008697089
 Na       -8.4232726375       -1.6231272574       -5.2759344733
 Na        3.5100835466       -1.7368334019      -17.8615581492
