232

 C         4.8315140792        5.0585451675      -19.6763356311
 C         5.0368258360        3.5286951640      -19.3500110806
 O         5.9894450549        2.9129313749      -19.7641870636
 C         3.9240920535        2.8170101335      -18.4600079773
 C         3.9876665642        1.3085071306      -18.8414037666
 O         4.3286626496        0.4784038592      -18.0450615672
 C         3.1994421818        1.0299861465      -20.2831130211
 C         4.1561738022        0.3676941129      -21.2707905958
 C         4.2392318703       -1.1723298024      -21.1078741771
 O         3.5720839721       -1.7051912781      -20.2204873932
 C         5.2106066049       -1.9348914579      -22.1021781186
 C         6.3707000453       -2.3444686391      -20.9992454556
 O         7.1574779709       -1.5522644655      -20.5744851961
 C         6.5112223465       -3.8602258496      -20.6270135721
 C         7.0994786571       -3.9348990847      -19.2330831177
 C         6.0973419266       -3.3566709630      -18.1170775208
 O         4.8948567846       -3.4650341242      -18.3548336799
 C         6.7185516334       -2.7022117956      -16.8305911627
 C         5.5819122115       -2.5100008738      -15.6723195944
 O         4.5844562818       -1.8011546173      -15.7817658323
 C         5.8174880704       -3.1532928005      -14.3581216357
 C         4.8788536369       -2.7480788402      -13.1848357171
 C         3.5044333443       -3.6513637656      -13.0631413705
 O         3.4628812733       -4.7735415698      -13.3937084155
 C         2.3070275103       -2.7786083128      -12.5344283107
 C         2.8042651422       -2.1541443270      -10.9991772765
 O         3.6605792876       -1.3060900767      -10.9312146112
 C         2.1731310413       -2.7767507800       -9.7949052909
 C         1.0477996152       -1.9261131625       -9.1177191667
 C         0.3917469984       -2.6752197619       -7.9132713224
 O        -0.3559686595       -3.6049677403       -8.1280685759
 C         0.6233663074       -2.1836342789       -6.3429780651
 C        -0.0633089862       -0.7582409932       -6.2476798064
 O        -0.4515578883       -0.2153570437       -7.2372709256
 C        -0.4240690842       -0.1903172829       -4.8657168476
 C        -1.7539145573        0.5730673060       -4.7592784435
 C        -3.0062965727       -0.3440283108       -4.9700808644
 O        -3.1034857704       -1.5001881120       -4.7182489863
 C        -4.0879844613        0.4130412226       -5.8059176878
 C        -5.3068716458       -0.6505554421       -5.8902793182
 O        -6.2593950745       -0.7012134908       -5.1336659955
 C        -5.0904966890       -1.8079335649       -7.0001452397
 C        -6.2072775197       -2.0014087216       -8.0597286687
 C        -6.5554796697       -0.8147734481       -9.0022630139
 O        -6.3863603888        0.3506720866       -8.7173803150
 C        -7.1229728206       -1.3351866965      -10.3920070313
 C        -8.4749575052       -2.1387233920      -10.1350713583
 O        -8.8748944810       -2.4301827799       -9.0221980366
 C        -9.3285443073       -2.6140362969      -11.3557672943
 C       -10.0277774617       -4.0139913045      -11.0401862978
 C        -9.0215491208       -5.1288597458      -10.9179675660
 O        -7.8566540923       -5.0090976148      -11.1133076834
 C        -9.5652251215       -6.5888295184      -10.2853085095
 C        -8.7625028883       -6.5959933314       -8.8760003001
 O        -7.6551605242       -7.0641628727       -8.8323762595
 C        -9.4946843195       -5.9266435822       -7.6142788291
 C        -8.6368495404       -6.0992644542       -6.3496587299
 C        -8.2286660627       -4.8935243505       -5.5233980056
 O        -8.5765939095       -3.7576849752       -5.9031945089
 C        -7.4331603807       -5.1125714034       -4.1668020179
 C        -7.7631824489       -4.0423460547       -3.0067031679
 O        -7.5720621470       -2.8667255382       -3.2076966692
 C        -8.1916053604       -4.5272688547       -1.6093581692
 C        -8.5465701777       -3.3541771492       -0.6830325352
 C       -10.1323575744       -3.0131764871       -0.7579789678
 O       -10.8820553386       -3.7615372593       -1.3313951894
 C       -10.6777552511       -1.6966851269       -0.0779941546
 C       -10.9246032558       -0.6393236115       -1.1959934089
 O       -10.2017857846        0.3261933962       -1.3437524332
 C       -11.9733068532       -0.8783133496       -2.3017329301
 C       -12.0690129987        0.2714767925       -3.2901535546
 C       -10.8690614882        0.2248308713       -4.2647301390
 O       -10.2748035883       -0.8260430729       -4.3979890775
 C       -10.3033308849        1.6014213983       -4.8554058883
 C       -10.1478206453        1.2924737759       -6.3998242871
 O        -9.5777271424        0.2368805299       -6.7349613127
 C       -11.0424235767        2.0331377729       -7.3692101850
 C       -10.2758176882        2.7075922571       -8.5792531344
 C        -9.7419273984        4.1256335390       -8.3468807187
 O        -9.6346630229        4.6725963146       -7.2447907223
 C        -9.0747610151        4.9147539933       -9.5110824712
 C        -8.0003598583        4.0794207471      -10.3136745493
 O        -8.0725546564        2.9040101595      -10.3474394828
 C        -6.8115593931        4.8367693113      -10.8781669608
 C       -10.0911223227        5.1848485472      -10.7286376399
 C        -8.4826385540        6.2793351603       -8.9938458951
 C       -11.1637163733        2.7736376116       -4.4976841782
 C        -8.9736806420        1.7530203423       -4.0068765251
 C       -12.0479330352       -2.1186704244        0.5676733639
 C        -9.7475843180       -1.0960263723        0.9498493146
 C        -7.4125750461       -6.5466508016       -3.7330321939
 C        -5.9086321834       -4.7272350655       -4.6090962109
 C       -11.0788242947       -6.8281128468      -10.1457310468
 C        -8.8603188455       -7.6033395065      -11.1962681291
 C        -7.3459260299       -0.1266767231      -11.3117056678
 C        -6.2315994226       -2.4613826950      -11.0849249439
 C        -4.6596496170        1.5347140453       -4.9734609255
 C        -3.6610755807        0.9167998805       -7.2138269704
 C        -0.0150563616       -3.2340300674       -5.4688351334
 C         2.2459419311       -2.1279675963       -5.9367146512
 C         1.9003913808       -1.6710132817      -13.6035927435
 C         1.0812556683       -3.7408149349      -12.3674160427
 C         7.8194354404       -3.6183302805      -16.3301359011
 C         7.2832664752       -1.4218199963      -17.3915111941
 C         4.5943063837       -3.1645487547      -22.9017998267
 C         5.9056535141       -1.0687901244      -23.1472697108
 C         4.2659164503        2.9074628828      -16.8958361461
 C         2.6314907136        3.5113687786      -18.7547445869
 H         5.6209942452        5.7550463219      -19.5321959163
 H         3.9430228811        5.5689609123      -19.3308066420
 H         4.6639136658        5.1816710064      -20.8231814502
 H         2.6757904965        1.8641759188      -20.6760079485
 H         2.3416875185        0.3205593870      -20.1511872453
 H         5.1114631485        0.8921823137      -20.9991762504
 H         3.8436513393        0.5604892635      -22.2912758094
 H         7.1038710302       -4.1796704257      -21.4510494706
 H         5.5272313351       -4.3546732632      -20.7582094760
 H         7.8802472785       -3.2662272206      -19.0434779027
 H         7.3712706986       -5.0227349401      -19.0022986016
 H         6.8417136009       -2.9271198413      -14.0708476869
 H         5.8117547155       -4.2443823427      -14.4915052960
 H         4.7740687225       -1.6812221607      -13.0939266782
 H         5.4491144118       -2.9122735118      -12.2818781948
 H         2.8846183937       -3.0085326121       -8.9912542491
 H         1.7165202962       -3.7359373351      -10.0093259811
 H         0.0718479109       -1.8344248146       -9.7466236602
 H         1.2853159875       -0.8768004233       -8.8134925082
 H         0.4253185947        0.3718914190       -4.5553056640
 H        -0.3876552646       -0.9531220957       -4.0798145399
 H        -1.8062084862        1.1953982577       -5.6336152121
 H        -1.7514897958        1.1130320278       -3.7773625254
 H        -5.0078655541       -2.7583390248       -6.4455919118
 H        -4.1639173625       -1.6121592316       -7.5477120115
 H        -7.1727314493       -2.0566082222       -7.4957766999
 H        -6.1199249051       -2.9671012246       -8.6057646498
 H        -8.7998890209       -2.7622727860      -12.3485347160
 H       -10.0286445298       -1.7636244939      -11.5522658051
 H       -10.8548712076       -4.3135364365      -11.7623133968
 H       -10.3731607316       -3.8323800644      -10.0475417758
 H       -10.4323176669       -6.4382532365       -7.5267285716
 H        -9.6851971410       -4.8744859650       -7.7801401784
 H        -7.6932327030       -6.4692881317       -6.6664018440
 H        -9.0378171810       -6.9253989205       -5.7130784503
 H        -7.4528338838       -5.2053161615       -1.2043509232
 H        -9.1218825080       -5.0355231385       -1.9500460023
 H        -8.1036480214       -2.4223488508       -1.2184563755
 H        -8.2759280950       -3.5757758558        0.3486252791
 H       -12.9565313278       -1.0575042136       -1.8006658592
 H       -11.6823389690       -1.8518359461       -2.7458464966
 H       -12.1606904795        1.1726430924       -2.7882883389
 H       -12.9191541498        0.1689150720       -3.9306981826
 H       -11.5970003826        2.8518002402       -6.7459714902
 H       -11.8770614899        1.2707732400       -7.6611792813
 H       -10.8217906072        2.7048306866       -9.5196684478
 H        -9.3390225214        2.1246199586       -8.8935233283
 H        -6.2647784838        4.1895637385      -11.5147446246
 H        -6.2591204804        5.0294981623       -9.9056427086
 H        -6.9005199592        5.7414435610      -11.4767824048
 H       -10.9056896299        5.8564775887      -10.4086238425
 H       -10.4875933195        4.3881706828      -11.2185985404
 H        -9.5409375729        5.7900742974      -11.4747489587
 H        -9.2433516928        6.8063621650       -8.3910759104
 H        -8.2302194731        7.0298556597       -9.7464201707
 H        -7.7045021643        5.8735636986       -8.3784740090
 H       -10.8674762462        3.7377513196       -4.9227445312
 H       -11.1955231003        2.8152078667       -3.4486610022
 H       -12.1688866214        2.5506660399       -4.7871513393
 H        -8.4559697677        2.6693646660       -4.2649085290
 H        -8.2671758767        0.9229842549       -4.2180955209
 H        -9.1133118876        1.7911241737       -2.9631650543
 H       -12.4681625513       -1.2116717374        1.0305526163
 H       -11.8200427416       -2.8609353194        1.3324413779
 H       -12.7572704107       -2.6297761315       -0.1539054559
 H        -8.9174598314       -1.7687488038        1.2486176160
 H       -10.1683414141       -0.9308778820        1.9120523647
 H        -9.2857503382       -0.2045274110        0.6320075244
 H        -7.0271869141       -7.1895835706       -4.5520462771
 H        -8.4356747262       -6.9635885127       -3.5074068484
 H        -6.8174462902       -6.7822882670       -2.8700649925
 H        -5.1147350307       -4.8472197654       -3.8318941972
 H        -5.7916769174       -3.6873769544       -4.9734882333
 H        -5.7246197311       -5.4119688251       -5.3644125956
 H       -11.4541311391       -7.4424480736      -10.9747886347
 H       -11.7700179321       -5.9787653999      -10.1936856907
 H       -11.2536687078       -7.2827164875       -9.1772786358
 H        -7.7575054978       -7.5059463003      -10.9575429335
 H        -8.9345071337       -7.4214270627      -12.2947045107
 H        -9.1734990074       -8.6665251610      -11.0608447823
 H        -8.3241454391       -0.2539756418      -11.8017698456
 H        -6.5537338154       -0.1367579147      -12.0135375033
 H        -7.2269878401        0.7526637736      -10.6635020028
 H        -5.1608209142       -2.3566281805      -11.1972464623
 H        -6.5413987317       -2.4769389221      -12.2106627923
 H        -6.4092183478       -3.5301130112      -10.9315668797
 H        -4.1604289437        2.4539078014       -5.3263032322
 H        -4.5945527358        1.3276872611       -3.8763408837
 H        -5.7276557807        1.7543141773       -5.2048293957
 H        -3.0173392164        1.8333134974       -7.1344773659
 H        -4.5169502278        1.2864333877       -7.7526674807
 H        -3.1526748165        0.1807054148       -7.7431940941
 H        -0.2392916328       -2.8232177237       -4.4969240816
 H         0.6934027038       -4.0224519260       -5.3579342293
 H        -0.8865128711       -3.5058390614       -6.0443619297
 H         2.3789484976       -1.8400398498       -4.8938145425
 H         2.8433789639       -1.4482291136       -6.7180689786
 H         2.6772514071       -3.0435184412       -6.2402262388
 H         2.6774160156       -1.0502620858      -13.9120910650
 H         1.0779196594       -1.0994374972      -13.1949598397
 H         1.3627886493       -2.1426919649      -14.4784441524
 H         1.2165623918       -4.6431949907      -11.7584222834
 H         0.6814367424       -4.1456780084      -13.3160576358
 H         0.2726196917       -3.2023794040      -11.9165130577
 H         8.5672104143       -3.8956487314      -17.0439756127
 H         7.4757451474       -4.5132431992      -15.9381628366
 H         8.3917625477       -3.1134977326      -15.5502979337
 H         7.9271204297       -1.4953534373      -18.2369109232
 H         7.6075517475       -0.8002858039      -16.5366414299
 H         6.4744226949       -0.8792606257      -17.7518971162
 H         4.3491782113       -4.0129112443      -22.1946757585
 H         5.3356415277       -3.5164433880      -23.6889550968
 H         3.6593779280       -3.0626820348      -23.3773818085
 H         6.6196388292       -0.5012063803      -22.5584832674
 H         5.2867436386       -0.3853236584      -23.6273699760
 H         6.3522049514       -1.8161540272      -23.8780188935
 H         4.1788659183        3.9255711554      -16.5137152868
 H         5.3318509041        2.7535569361      -16.8310506553
 H         3.7846411872        2.1142140849      -16.3909218506
 H         2.5982374699        4.4390008503      -18.2458728697
 H         1.7065599697        3.1073882623      -18.2142122497
 H         2.4476404033        3.5318680261      -19.8135935787
 Na       -8.3920941798       -1.8089544947       -5.4645621538
 Na        3.6833744362       -1.6569095781      -17.9119866051
