232

 C         4.8336212331        5.0356113737      -19.7236908425
 C         4.9897228575        3.6005351294      -19.3442545178
 O         5.9068974371        2.9438554088      -19.8333836099
 C         3.8817157386        2.8945491784      -18.5073331971
 C         3.8088734687        1.4388726910      -18.8622076956
 O         4.1733300771        0.6181713632      -18.0819005527
 C         3.3027054791        0.9644840657      -20.1632605063
 C         4.2350390030        0.3644312222      -21.2444442190
 C         4.2880989612       -1.1286444258      -21.1516709282
 O         3.7065504752       -1.7620585911      -20.2861321077
 C         5.2442154819       -1.8826023540      -22.0339144794
 C         6.3413875179       -2.3810597505      -21.0557080683
 O         7.0500112081       -1.5085427593      -20.6001906372
 C         6.3483542676       -3.8548269011      -20.6061852589
 C         7.1151636421       -4.0152627183      -19.2820767888
 C         6.1692545498       -3.4597323032      -18.1194743842
 O         4.9692277046       -3.5379868288      -18.4163937823
 C         6.6576277532       -2.7546145239      -16.8590566493
 C         5.5551752325       -2.5023894914      -15.7554078243
 O         4.6595483685       -1.7348812753      -15.9892379460
 C         5.8651917406       -3.1430815762      -14.3067451020
 C         4.9046997642       -2.8782343176      -13.1178216405
 C         3.6316315881       -3.5800803474      -13.0813020223
 O         3.5386133724       -4.7822769524      -13.2800364090
 C         2.3303591122       -2.8342254927      -12.4890645002
 C         2.7253694832       -2.1979034483      -11.1428133038
 O         3.6327725283       -1.3863962195      -11.0172138058
 C         2.1299708007       -2.8575479579       -9.8957031267
 C         1.1251248632       -1.9125013090       -9.1242698803
 C         0.4268944519       -2.7176819281       -7.9796187363
 O        -0.3047245606       -3.6189724909       -8.2094677142
 C         0.6228442660       -2.3333933092       -6.4620354405
 C        -0.0092350330       -0.9493125348       -6.2307849896
 O        -0.3272799492       -0.2309598704       -7.1752218147
 C        -0.3279415582       -0.2867909526       -4.7462852939
 C        -1.6495106715        0.4834243989       -4.8080733379
 C        -2.9513349276       -0.3563001142       -5.1661452882
 O        -3.0499406708       -1.4882354220       -4.6954672775
 C        -4.1899635807        0.4168411981       -5.8425732630
 C        -5.2526779279       -0.6795929911       -6.0570989670
 O        -6.2264542308       -0.7617849174       -5.3138669785
 C        -5.0170311279       -1.7340492237       -7.1174177364
 C        -6.1667645986       -1.9902908836       -8.0566997477
 C        -6.5473992076       -0.9369489788       -9.0862708578
 O        -6.4334411116        0.2826107476       -8.8506367814
 C        -7.1703769343       -1.3197584612      -10.5069352504
 C        -8.5247709680       -2.1418071833      -10.2194133697
 O        -8.8354909754       -2.2407348886       -9.0102589453
 C        -9.3956740999       -2.7056638163      -11.3364305029
 C       -10.1289316083       -4.0291174880      -10.9576559143
 C        -9.1232114337       -5.2030718476      -10.8029481255
 O        -7.9809377503       -4.9795900916      -11.0617499841
 C        -9.4726610351       -6.5911097987      -10.2357562223
 C        -8.8201552913       -6.5962363610       -8.8478464017
 O        -7.6625449306       -6.9664668198       -8.7240913572
 C        -9.4351068790       -6.0137914773       -7.4997107939
 C        -8.4460987609       -6.3244411833       -6.2413620390
 C        -8.2479695653       -5.0263739555       -5.4144989038
 O        -8.5164468268       -3.9583356069       -5.9191624579
 C        -7.4390011930       -5.1085309178       -4.1378260925
 C        -7.7909419166       -3.9008452157       -3.0375733679
 O        -7.6650749723       -2.7112932066       -3.2625999904
 C        -8.2606147653       -4.4661408501       -1.7319168811
 C        -8.5640136212       -3.2941348905       -0.7406132970
 C       -10.0470830608       -3.0019840489       -0.7823422178
 O       -10.7697445334       -3.8317255378       -1.3172382998
 C       -10.6768560610       -1.7492376275       -0.0336253983
 C       -10.9635860149       -0.6299251024       -1.2133325247
 O       -10.2431448773        0.3647667028       -1.2016937761
 C       -12.0189673179       -0.9133972252       -2.2797331626
 C       -12.1311610871        0.2260466653       -3.2059902007
 C       -10.8939380217        0.2391019043       -4.0896618113
 O       -10.4589985593       -0.8757675441       -4.4732519163
 C       -10.3364333134        1.5373453147       -4.7388576642
 C       -10.1884670888        1.2389156277       -6.2678514773
 O        -9.4542944275        0.4147786183       -6.6978499033
 C       -11.0365344845        2.1196755721       -7.3867091609
 C       -10.1419535809        2.6262550201       -8.4907016119
 C        -9.7123163701        4.1017600352       -8.3521745778
 O        -9.7385407165        4.5762958099       -7.2718864904
 C        -9.0597237907        4.9419101853       -9.4941055686
 C        -7.8877487760        4.1218842454      -10.2109336720
 O        -8.1594378539        2.9416193165      -10.4970074354
 C        -6.8425874723        4.8825192930      -10.9725043784
 C       -10.1448235947        5.2053114719      -10.6749584168
 C        -8.6200317331        6.2648585151       -8.9021243406
 C       -11.2028114131        2.7816329950       -4.6049222576
 C        -8.8612359370        1.7494538720       -4.0839958907
 C       -12.0421242627       -2.0977946958        0.6566382830
 C        -9.8191808475       -1.0859993164        1.0486761690
 C        -7.4153283074       -6.4673215189       -3.4672718815
 C        -5.9644753326       -4.7444687318       -4.4876503645
 C       -11.0087686713       -6.9001511250      -10.1676570132
 C        -8.8251977905       -7.6499152904      -11.1454493459
 C        -7.3886765034       -0.0298576566      -11.2976149482
 C        -6.1579052871       -2.3985841547      -11.0018224838
 C        -4.7180714861        1.5576295569       -4.8743839967
 C        -3.6689201880        0.9794966517       -7.1200790942
 C        -0.0156503035       -3.4297950513       -5.5052522957
 C         2.0710428826       -2.0369969879       -6.0550831964
 C         1.9713104388       -1.7893044681      -13.5021309737
 C         1.1492211472       -3.7966375148      -12.3604974224
 C         7.8164177789       -3.6015776947      -16.2738581645
 C         7.2037619111       -1.3408644259      -17.2891258267
 C         4.5697955088       -2.9661361950      -22.8582141583
 C         5.7994192184       -0.9074472376      -23.1736703562
 C         4.3031608610        2.9951158005      -16.9605764009
 C         2.5386428207        3.4933478885      -18.7403331738
 H         5.7655753797        5.6801219424      -19.7392176080
 H         4.1205551790        5.5762398159      -19.0360017671
 H         4.4044555805        5.3321160364      -20.7328568322
 H         2.8067832331        1.8261315001      -20.6397761616
 H         2.4680311854        0.2713833835      -20.1291848623
 H         5.2364119308        0.7692353412      -21.0033485097
 H         3.8776121724        0.7063942531      -22.1953884757
 H         6.7419967330       -4.4075706745      -21.4658865397
 H         5.2766232692       -4.1183238469      -20.5910558881
 H         8.0350109647       -3.5717596052      -19.1618015994
 H         7.1220788720       -5.1816014917      -19.1855783225
 H         6.8722771944       -2.9159017679      -14.0188807276
 H         5.9200412357       -4.2524285497      -14.4788145875
 H         4.6540164246       -1.8099309977      -13.0253698961
 H         5.4224475189       -2.9722016843      -12.1589603243
 H         2.9312658173       -3.0171102952       -9.1297292750
 H         1.6954382622       -3.8639447285      -10.0162079180
 H         0.3135400171       -1.4290896353       -9.6939941721
 H         1.6804710068       -1.0618581637       -8.6601128321
 H         0.5555695744        0.3418722316       -4.5289550642
 H        -0.3086662747       -0.9266777299       -3.9192716466
 H        -1.5376645119        1.2098512830       -5.6050510601
 H        -1.8645160059        0.8799581051       -3.8640711472
 H        -4.8398410138       -2.6077762350       -6.5157952680
 H        -4.1948048087       -1.4909930259       -7.7815481499
 H        -7.1838957166       -2.1763249230       -7.5610505380
 H        -5.9104909401       -2.9478842199       -8.6651185895
 H        -8.8884460873       -2.9619754996      -12.3090107674
 H       -10.0898428546       -1.8823673165      -11.6418077161
 H       -10.7377861361       -4.1992696056      -11.8414043912
 H       -10.7027194891       -3.8264467483      -10.0926913268
 H       -10.4389924498       -6.3144503478       -7.2192913620
 H        -9.4812237361       -4.9232054142       -7.6641367839
 H        -7.4176805095       -6.6327177001       -6.4885471120
 H        -8.8884269461       -7.1955679046       -5.7356820935
 H        -7.4074837180       -5.0097223647       -1.4571446912
 H        -9.2092242978       -5.1404680194       -1.9735966404
 H        -7.9447336777       -2.4196738887       -1.0582151290
 H        -8.4307794394       -3.6876201629        0.3219944399
 H       -12.9487572154       -1.2652508768       -1.8194030552
 H       -11.5805322995       -1.8117461136       -2.7821102788
 H       -12.2231601834        1.2350733966       -2.6793466467
 H       -12.9615156597        0.1139470159       -3.9186539576
 H       -11.6390703220        2.8612118047       -6.9067538682
 H       -11.7700622184        1.4022563475       -7.8503349292
 H       -10.6458138086        2.5056678310       -9.4613195572
 H        -9.3171378155        1.9459509861       -8.5692660807
 H        -6.5656048678        4.4567281865      -11.9125951226
 H        -5.9948816659        5.1588944066      -10.3138100408
 H        -7.3234686935        5.8022323638      -11.3072247256
 H       -11.0816523173        5.5491279198      -10.1840026027
 H       -10.4787531451        4.2825190633      -11.1934863349
 H        -9.9035774037        5.9027051183      -11.4293628144
 H        -9.5025341602        6.8051726095       -8.5969795875
 H        -8.1349825587        6.9343944533       -9.6363659900
 H        -8.0148939169        5.9741080087       -8.0812022878
 H       -10.8789911103        3.6046841764       -5.2644347942
 H       -11.2707836771        3.1877748611       -3.6173333751
 H       -12.1718346397        2.5190461357       -4.8720809352
 H        -8.4481631393        2.7610959568       -4.3687327085
 H        -8.1239626468        1.0263018210       -4.4610789703
 H        -8.8201945388        1.7098184077       -3.0170056096
 H       -12.4786417114       -1.1439639844        0.9447918839
 H       -11.9430154335       -2.8476648669        1.5285140135
 H       -12.6922652809       -2.6175509354       -0.1258894193
 H        -8.8555443397       -1.5328907175        1.0508586300
 H       -10.0899593207       -1.3225462045        2.0566798163
 H        -9.6283168296       -0.0496340120        0.9231347804
 H        -7.1795716241       -7.2929679228       -4.1931129933
 H        -8.3786087800       -6.7298058687       -3.0552650279
 H        -6.6733405568       -6.5912364115       -2.6822987545
 H        -5.3547106574       -4.6729484331       -3.5842428223
 H        -5.8665194834       -3.7710914712       -4.9277853546
 H        -5.5712245278       -5.5301758285       -5.0744633894
 H       -11.4023052487       -7.2545259997      -11.0993846000
 H       -11.6683230361       -6.0199226814       -9.9530186954
 H       -11.1651591386       -7.5406530585       -9.3625496034
 H        -7.7183622299       -7.5394519176      -11.2775582498
 H        -9.2663369256       -7.6937822545      -12.1532479807
 H        -9.0512181402       -8.6414574829      -10.7142560621
 H        -8.4289261119       -0.0058922450      -11.4269003022
 H        -6.7940340477       -0.0702788007      -12.2237103312
 H        -6.9714958401        0.7934260582      -10.6666514211
 H        -5.0932349198       -2.1724409915      -10.8688386515
 H        -6.1670650811       -2.6971007767      -12.0185937252
 H        -6.3210476657       -3.4284267405      -10.5861627968
 H        -4.1617433515        2.4680504982       -5.2234866172
 H        -4.5775546266        1.2960016447       -3.8172443290
 H        -5.7812401943        1.8628881121       -5.0391295451
 H        -3.0019765105        1.8274683171       -6.9735908153
 H        -4.4154895931        1.3789049799       -7.8143551709
 H        -3.1172055610        0.1471221921       -7.5645100497
 H        -0.2932803666       -3.0266049017       -4.4830870155
 H         0.6399202005       -4.1966512999       -5.3946576493
 H        -0.8234913206       -3.6622478912       -6.0912460433
 H         2.0572558280       -1.5100811410       -5.1355632874
 H         2.5509888706       -1.4591679452       -6.7921363551
 H         2.6436623865       -2.9682639796       -6.1055930302
 H         2.7846317636       -1.2306504946      -13.8097737838
 H         1.1649479125       -1.1639756849      -13.0466656228
 H         1.4377322638       -2.1756814949      -14.3200257659
 H         1.4863445874       -4.7721472298      -12.0837314535
 H         0.6960038658       -3.9630888093      -13.3343844066
 H         0.3181416010       -3.5367137070      -11.6994902382
 H         8.7111909160       -3.7320733638      -16.8831050739
 H         7.4950403279       -4.5893162859      -15.9229100837
 H         8.2510125017       -3.0963682697      -15.3528014719
 H         8.1010113648       -1.4534712992      -17.8797916574
 H         7.3044091046       -0.7596392540      -16.4258700809
 H         6.5376294451       -0.8092270305      -17.9587870711
 H         4.1015633315       -3.8296336096      -22.3349974661
 H         5.2490302607       -3.3370472248      -23.5765609695
 H         3.6762241121       -2.5868606121      -23.3745099290
 H         6.0632536320        0.0497452383      -22.7072362078
 H         4.9403348629       -0.6730879562      -23.8706984023
 H         6.5737979183       -1.4388460535      -23.6814655022
 H         4.0559730433        3.9290632423      -16.5364530491
 H         5.4244876831        2.9801513893      -16.9735709339
 H         3.9947177219        2.1038929869      -16.4621153753
 H         2.2848293862        4.3842786589      -18.0870676607
 H         1.7383528836        2.8362989884      -18.3087288152
 H         2.3493670520        3.6200891646      -19.8036426986
 Na       -8.3162629982       -1.6446816953       -5.5277510532
 Na        3.8041606207       -1.5685404542      -17.9569653666
