232

 C         4.8703508829        5.1282824598      -19.7575071885
 C         4.9815438363        3.6884930093      -19.4885037933
 O         5.8479600828        2.9551226160      -19.8982553517
 C         3.8387035347        2.9678792175      -18.5179833361
 C         3.7327742618        1.4865656684      -18.8483006708
 O         4.1056960907        0.6291036855      -18.0013491770
 C         3.1197607258        1.0355562623      -20.1982270044
 C         4.3110945808        0.4367977935      -21.0946818965
 C         4.3438705769       -1.1018134178      -21.0820595732
 O         3.7197090436       -1.8577053431      -20.3671504913
 C         5.2582024600       -1.8198122934      -22.2260523830
 C         6.3896657356       -2.3231311765      -21.1947690013
 O         7.0598817252       -1.5293775819      -20.5401263939
 C         6.3104811718       -3.8696331144      -20.6063495135
 C         7.0566119880       -4.0496804235      -19.2758586426
 C         6.0966801910       -3.5487949918      -18.1995248243
 O         4.9198415671       -3.5759695276      -18.3061554642
 C         6.7206267342       -2.8203561472      -16.8187840681
 C         5.6438690093       -2.5681953701      -15.7506793040
 O         4.7079319239       -1.8093294654      -15.9453737227
 C         5.8303894536       -3.1347750924      -14.4069041970
 C         4.9720230171       -2.7616919503      -13.2201195043
 C         3.6714903131       -3.6225321410      -13.0274900337
 O         3.6549871423       -4.8320702306      -13.2419876027
 C         2.3023064189       -2.9587109988      -12.5205609929
 C         2.7222193549       -2.3615860209      -11.1219227268
 O         3.4958496419       -1.4291447992      -11.1862783792
 C         2.1684089618       -2.9090255424       -9.7290993680
 C         1.2503891085       -1.9236599035       -9.0197010046
 C         0.4309530265       -2.7460295295       -7.9409311752
 O        -0.2470692032       -3.6665889048       -8.4042444434
 C         0.5748805133       -2.3619526328       -6.4788087065
 C        -0.1738138593       -1.0118067795       -6.2563210065
 O        -0.2246998775       -0.1957546326       -7.1627834990
 C        -0.3967983835       -0.4743198183       -4.8055794944
 C        -1.5514791524        0.4434540609       -4.8378252249
 C        -2.9007773761       -0.2883519714       -5.0681763399
 O        -2.9829932775       -1.4830696977       -4.7779110335
 C        -4.0482164716        0.3787593141       -5.8156187072
 C        -5.2172992274       -0.7189401731       -6.1815313503
 O        -6.2389742987       -0.6831133442       -5.4995559628
 C        -4.8961920049       -1.6897724894       -7.3229622667
 C        -6.1944508593       -2.0777411658       -8.0653034721
 C        -6.5846302209       -0.9580910219       -9.0509671275
 O        -6.3512615933        0.1909076792       -8.8240829014
 C        -7.2148223555       -1.3820616038      -10.5066589146
 C        -8.5881937107       -2.1198458742      -10.1594955504
 O        -8.9594582286       -2.1597384069       -9.0188572531
 C        -9.4076912402       -2.7327660040      -11.3161951270
 C       -10.1845074709       -4.0099660115      -10.8755346402
 C        -9.1539232786       -5.1640290806      -10.6805631197
 O        -7.9960255415       -4.9415773932      -11.0749693395
 C        -9.4650838002       -6.5981312206      -10.0576640162
 C        -8.6925989441       -6.6311921504       -8.6888999471
 O        -7.5362536439       -6.9846206504       -8.7084750446
 C        -9.3924193606       -6.1344259631       -7.4195804488
 C        -8.4698264526       -6.4309763299       -6.2092640788
 C        -8.1754913955       -5.0825076555       -5.4496979542
 O        -8.5418214036       -4.0640276411       -5.9471099517
 C        -7.3344786247       -5.0601794689       -4.0344699824
 C        -7.8613556711       -3.8948973897       -3.1461659610
 O        -7.8402287491       -2.7439746071       -3.5402824978
 C        -8.2529266849       -4.3056186642       -1.6648721946
 C        -8.5401002343       -3.1530305185       -0.6461036080
 C       -10.1123176991       -3.0528721767       -0.6497540992
 O       -10.8745650437       -3.7479381887       -1.3045049980
 C       -10.6734049450       -1.7498198001        0.0007457422
 C       -10.9059663060       -0.7151619822       -1.1394829536
 O       -10.3785047981        0.3522239147       -1.1245294891
 C       -12.0517977219       -0.9779490185       -2.1069625234
 C       -12.1658862458        0.1800703144       -3.1452005992
 C       -10.9667215044        0.2076519970       -4.2011637835
 O       -10.5017940826       -0.8839340581       -4.4911145070
 C       -10.3617431534        1.5408058948       -4.7984645498
 C       -10.0722240875        1.2911488436       -6.2841446625
 O        -9.2674449959        0.4939977722       -6.6807017446
 C       -10.8979514204        2.0285448096       -7.4121118663
 C       -10.0023470153        2.4909623130       -8.5276324430
 C        -9.6086219949        4.0019383754       -8.2393879972
 O        -9.9080718259        4.5020404214       -7.1631528567
 C        -9.1304516693        4.9053172638       -9.4410793740
 C        -8.0788366700        4.2003361353      -10.4316268037
 O        -8.0881037264        2.9690316350      -10.5767936855
 C        -6.8624610542        4.9615639134      -11.0236125443
 C       -10.2025917717        5.1798866727      -10.4662938133
 C        -8.7095354110        6.2844020537       -8.8799871297
 C       -11.2018540473        2.8234355720       -4.4116487640
 C        -8.9364131719        1.7653650806       -4.2926535229
 C       -12.0648511149       -2.1398231509        0.6191631780
 C        -9.7713107021       -1.1404487784        1.1195221597
 C        -7.4441502699       -6.4003215091       -3.2211844527
 C        -5.8888968394       -4.7241943780       -4.4320063316
 C       -11.0434638590       -6.8906484594      -10.1289670120
 C        -8.8017872062       -7.6677872104      -11.0005439512
 C        -7.4482737536       -0.1489806627      -11.4553193013
 C        -6.0953736097       -2.2548034966      -11.1431044941
 C        -4.7095953399        1.4774421701       -4.7907966170
 C        -3.6619230805        1.1079182430       -7.1526520005
 C         0.0269233122       -3.5697924515       -5.5787968261
 C         2.0787166027       -2.0566233815       -6.1356380901
 C         2.0167079629       -1.6702922931      -13.4760080662
 C         1.1756350822       -3.9570495129      -12.4335649976
 C         7.9948083705       -3.6089574796      -16.2890357361
 C         7.1529016577       -1.3212317058      -17.1574807366
 C         4.3838158666       -2.9601121293      -22.8341884239
 C         5.9168119060       -0.6894077360      -23.2779229028
 C         4.3541851142        3.2048423916      -17.0505745700
 C         2.2518755716        3.5868483653      -18.6259423307
 H         5.8452560544        5.5999285938      -20.0913112558
 H         4.5832748677        5.7195944654      -18.8249641731
 H         4.2220016242        5.5849785603      -20.4430033314
 H         2.6246921941        1.9101255264      -20.7174609160
 H         2.3586593502        0.2862578420      -20.2246991105
 H         5.2256496324        0.8458496657      -20.7491873760
 H         4.1404615528        0.7427511402      -22.1488444819
 H         6.8010337096       -4.5226300215      -21.3762686716
 H         5.2644496727       -4.0558465807      -20.6780436051
 H         8.1174405996       -3.5102818218      -19.1352790840
 H         7.1565089743       -5.0664736315      -19.1720753617
 H         6.9171228162       -2.9727008163      -14.1482802967
 H         5.8531674165       -4.2417950342      -14.4424821472
 H         4.7820183813       -1.6822061139      -13.0467538135
 H         5.6311337984       -2.9156456309      -12.3376571749
 H         2.9647262251       -3.2894307518       -9.0670522141
 H         1.4994527390       -3.7850651455       -9.8739168554
 H         0.5576393264       -1.5669014430       -9.7146120506
 H         1.7129556499       -1.0281531447       -8.6424622266
 H         0.5952564434       -0.0356506471       -4.5360828421
 H        -0.4970570725       -1.2901901415       -4.0825731910
 H        -1.3821856097        1.1926321294       -5.5990288584
 H        -1.6391776583        0.8367218513       -3.8547136718
 H        -4.5389474063       -2.4824783777       -6.6543715145
 H        -4.1948971356       -1.3295660814       -8.0719575142
 H        -7.0623009311       -2.2379999902       -7.3852231230
 H        -6.0207547125       -3.0014970903       -8.6592872495
 H        -8.8635586782       -3.0325219227      -12.1904341421
 H       -10.0837334823       -1.9806840216      -11.7338774411
 H       -10.8049658228       -4.1259204997      -11.6946841423
 H       -10.7161240769       -3.7896114951       -9.9324365489
 H       -10.4219431189       -6.5269599114       -7.1750696586
 H        -9.5611280654       -5.0501470856       -7.6079581392
 H        -7.4617837534       -6.9164841847       -6.4887169093
 H        -8.9967336097       -7.1977090257       -5.6567124471
 H        -7.2767898509       -4.8147630142       -1.4173894256
 H        -9.1549145030       -4.9589058676       -1.6311806571
 H        -8.0866179199       -2.2006457434       -0.8444721881
 H        -8.3232608509       -3.5998224746        0.3645982089
 H       -12.9295488705       -0.9862878413       -1.4790484710
 H       -11.9967539909       -1.9851046940       -2.5359331090
 H       -12.0551721209        1.2091756202       -2.6364526563
 H       -13.1903851197        0.1138148269       -3.6451852559
 H       -11.4115854855        2.7854822768       -6.9237107029
 H       -11.6199481069        1.3985959585       -7.7807274599
 H       -10.5328645644        2.4999701089       -9.4934955331
 H        -9.2413829463        1.7704858690       -8.6254979126
 H        -6.5672202913        4.4712402513      -11.9905883686
 H        -6.0894747477        5.0499106958      -10.3256388221
 H        -7.1359023371        5.9320363897      -11.4284817831
 H       -11.1792109830        5.3850262014      -10.0606494350
 H       -10.3962226195        4.1883632627      -11.0542623542
 H        -9.9577827374        5.9170761607      -11.2144140273
 H        -9.6330121545        6.8191354644       -8.7702641537
 H        -8.1276176240        6.8127564826       -9.6245528507
 H        -8.1916868863        6.1642174331       -7.9271224152
 H       -10.8050140038        3.6957538095       -4.9201409349
 H       -11.2515590723        3.1544857098       -3.3396918283
 H       -12.2595924034        2.7181195101       -4.7706371185
 H        -8.5386219813        2.7460131964       -4.5696629753
 H        -8.2121882388        1.0597130757       -4.6618512954
 H        -8.8885426534        1.7093154987       -3.1539825894
 H       -12.6866487077       -1.2276409690        0.8755477146
 H       -11.8768766139       -2.8411794654        1.4654150218
 H       -12.5410541431       -2.7534285395       -0.1520606990
 H        -8.7484272510       -1.1614393077        0.8517493143
 H        -9.7497094036       -1.7292306779        2.0388568380
 H        -9.9679426393       -0.0669625115        1.3029210346
 H        -7.1674001435       -7.2097177736       -3.8751917227
 H        -8.4503086395       -6.5999554272       -2.8634951035
 H        -6.7253409082       -6.5244955726       -2.3748531202
 H        -5.2661323735       -4.5280427577       -3.6230614451
 H        -5.8746952201       -3.8030571781       -4.9368928002
 H        -5.4413865825       -5.5947351156       -5.0144189849
 H       -11.4321489612       -6.6847514361      -11.0988377310
 H       -11.5931568173       -6.2469601194       -9.4775722660
 H       -11.2525050875       -7.8979258475       -9.7573335353
 H        -7.8438469875       -7.3841170639      -11.3352759027
 H        -9.4005484129       -7.9060397010      -11.8733338975
 H        -8.7134977198       -8.6026392762      -10.4662841531
 H        -8.5160228143        0.0150617168      -11.3677637169
 H        -7.0714346384       -0.4447421240      -12.4625760228
 H        -6.8025828481        0.6416127740      -11.1037979374
 H        -5.1350423570       -1.7612522147      -10.9922459318
 H        -6.1249997548       -2.4470395707      -12.1596963709
 H        -5.9498809968       -3.2389431142      -10.7860863469
 H        -4.1690858273        2.4172203497       -4.8021892560
 H        -4.8152498255        1.0250588209       -3.8075333547
 H        -5.6929614910        1.7723652931       -5.1559262895
 H        -3.2326103361        2.0671233238       -7.0241197245
 H        -4.5838463666        1.3587878943       -7.7149925874
 H        -2.9959939095        0.4391173556       -7.8024921398
 H        -0.0170162622       -3.3548702997       -4.5550582645
 H         0.7830234839       -4.3969581821       -5.7346913816
 H        -0.9096045902       -3.8059286991       -6.0810566174
 H         2.1070079541       -1.5143282502       -5.2185454190
 H         2.4898971522       -1.3730486150       -6.7871220645
 H         2.6306340226       -2.9931999353       -6.2047151168
 H         2.9945839716       -1.0507547746      -13.5098510194
 H         1.1727187439       -1.1255293827      -13.1514521018
 H         1.7447088878       -1.9227948440      -14.4446931340
 H         1.5897185558       -4.9041572788      -12.1191257472
 H         0.7613797806       -4.1373857479      -13.4054194694
 H         0.3239175815       -3.7278405555      -11.7848542409
 H         8.8258987700       -3.6371326489      -17.0513106499
 H         7.7419838815       -4.7059708256      -15.9682304071
 H         8.5238532478       -3.2087925395      -15.4201458080
 H         8.0983562453       -1.3999632884      -17.6830517613
 H         7.2034967764       -0.7103953024      -16.2928022628
 H         6.5000958537       -0.8367105350      -17.9281373946
 H         3.7502722787       -3.4138620209      -22.1142593689
 H         4.8945515661       -3.8120623982      -23.2536618386
 H         3.6151020381       -2.5662425517      -23.5345422587
 H         5.9699013974        0.2529990410      -22.7308572091
 H         5.2130477080       -0.4972867503      -24.1507254722
 H         6.8467622922       -1.0740815750      -23.5881038100
 H         4.0917234640        4.2272970897      -16.7670078226
 H         5.4218996693        3.0565746505      -16.9190740435
 H         3.8193761529        2.4187920720      -16.4747725553
 H         1.9343004562        4.3994623282      -17.9280182745
 H         1.5044778601        2.8719934236      -18.4113564533
 H         2.1290301596        3.8661754229      -19.7175523722
 Na       -8.3436290534       -1.3879820071       -5.5035119519
 Na        3.8673891872       -1.5287368236      -18.0841086491
