232

 C         4.8242402296        5.2498799018      -19.7576774603
 C         4.6904024134        3.7972980916      -19.6165616647
 O         5.4608330733        2.9641180904      -20.1116007589
 C         3.6104532138        3.2799900549      -18.5331389792
 C         3.5694417826        1.6290864976      -18.7464614727
 O         3.9200930224        0.8847356491      -17.8985946870
 C         3.1567848719        1.0492751748      -20.1138186402
 C         4.3165387638        0.6051494059      -20.9599977613
 C         4.2685037057       -0.9664373110      -21.1298085845
 O         3.5382679130       -1.6502412848      -20.4042291539
 C         5.2394456626       -1.7244234338      -22.1541536229
 C         6.3235506989       -2.2879730457      -21.1072470489
 O         7.1811751009       -1.5242841400      -20.7291064033
 C         6.3181039789       -3.7522039015      -20.6853779848
 C         6.9465882626       -3.8766661949      -19.3067481992
 C         6.0611341020       -3.4439248506      -18.0568336566
 O         4.8204789960       -3.7041088936      -18.0788515530
 C         6.8593272117       -2.8225049414      -16.8763818814
 C         5.7889667264       -2.7998811441      -15.7240709146
 O         4.7264476231       -2.2392626068      -15.9283904122
 C         5.9360347976       -3.3200311377      -14.3367698906
 C         4.9021822335       -2.6763810635      -13.3867713303
 C         3.8171142556       -3.6829539352      -13.0878265950
 O         3.8957646541       -4.8768926755      -13.2281993638
 C         2.4543455670       -2.9985327945      -12.5500444455
 C         2.8288089304       -2.4295251042      -11.1047480169
 O         3.3605499092       -1.3297638740      -11.1005075182
 C         2.3448317967       -3.1898151465       -9.8303506079
 C         1.3820102107       -2.0983384264       -9.1515306638
 C         0.5602708883       -2.8056240347       -8.0996691175
 O        -0.1793191604       -3.6751367473       -8.4443477847
 C         0.7657502310       -2.4267350404       -6.5643224043
 C        -0.0409924573       -1.1213989471       -6.3383839032
 O        -0.3159295390       -0.2958605183       -7.1841849963
 C        -0.3871234334       -0.7669825549       -4.8616321123
 C        -1.5269413928        0.3184287448       -4.7853408597
 C        -2.7987258955       -0.4020307466       -5.3182437697
 O        -3.0445586178       -1.5294951357       -4.9165605098
 C        -4.1094785107        0.4696351571       -5.8907959007
 C        -5.1496689247       -0.5139820472       -6.4199417158
 O        -6.2364935451       -0.5523969028       -5.8718932705
 C        -4.8142012387       -1.6800496090       -7.4247793098
 C        -6.0596417013       -2.0932720796       -8.1504439834
 C        -6.5105461794       -1.0201626194       -9.1856134532
 O        -6.3022045551        0.1687555327       -8.9409075939
 C        -7.2509948810       -1.4856596308      -10.5185996563
 C        -8.6110617792       -2.1216722182      -10.2153193371
 O        -9.0519039784       -2.0354096393       -9.0585589228
 C        -9.4566137423       -2.7791621760      -11.2449935909
 C       -10.0819936054       -4.1073954375      -10.6407351637
 C        -8.9725103063       -5.1412485890      -10.5995481017
 O        -7.8835958931       -4.9939461688      -11.0209554801
 C        -9.3395049307       -6.5987361642       -9.8877479603
 C        -8.6024530517       -6.6383943404       -8.5944106428
 O        -7.4225284277       -6.9911719255       -8.5760437131
 C        -9.3691172628       -6.4573835770       -7.1657658313
 C        -8.5018086576       -6.3995407205       -5.9072779799
 C        -8.1528236580       -5.0025727279       -5.3820001447
 O        -8.4351850197       -3.9574766220       -5.9500010278
 C        -7.3128434510       -4.9986835655       -4.0093531320
 C        -8.0324521617       -3.8901443571       -3.1310620808
 O        -8.3596203208       -2.8215127690       -3.5885630038
 C        -8.0013993521       -4.0120393000       -1.6579109553
 C        -8.5845262672       -2.8920099617       -0.9302427848
 C       -10.1960017821       -2.8582480334       -0.7865025359
 O       -10.8324043138       -3.7672021756       -1.2449685618
 C       -10.9348662266       -1.6552974060        0.1899448465
 C       -11.0890407782       -0.5494189317       -0.9411956703
 O       -10.3060305991        0.3912351045       -0.9725338729
 C       -12.0851449126       -0.8189957789       -2.0927546437
 C       -12.1194731734        0.2192297569       -3.1707829753
 C       -10.9345303435        0.0796580349       -4.0889882152
 O       -10.5132746738       -1.0043168599       -4.4670876265
 C       -10.2874803515        1.4346023575       -4.6690363809
 C       -10.0695357219        1.2868026203       -6.3374833059
 O        -9.0563302528        0.6313891349       -6.6487720368
 C       -10.8987156274        1.8121765164       -7.5704313431
 C        -9.8788829389        2.3904894733       -8.5861882570
 C        -9.6204801204        3.9095456553       -8.2842818103
 O        -9.8538374989        4.4199110407       -7.2300887694
 C        -9.2543762921        4.8637968566       -9.4842117475
 C        -8.0846796226        4.2762473306      -10.3890083684
 O        -8.1386151560        3.0887672298      -10.6550821904
 C        -7.0824339397        5.1900289957      -10.9941581755
 C       -10.5990416851        5.0681716737      -10.1795833823
 C        -8.6880744782        6.2106558041       -8.8096794525
 C       -11.2563359622        2.6378172384       -4.5041837091
 C        -8.9077448983        1.6956750020       -3.9641556154
 C       -12.1866451684       -2.1795687107        0.8893642628
 C        -9.9042936091       -1.1531422734        1.2804169442
 C        -7.3468591397       -6.4603258813       -3.3936917167
 C        -5.8307242578       -4.7825759017       -4.3682373881
 C       -10.8513208527       -6.7443792143       -9.6457305616
 C        -8.8222257159       -7.6770668131      -10.9064790748
 C        -7.7852996024       -0.1448688064      -11.2927522064
 C        -6.2857284710       -2.3376414073      -11.3036706850
 C        -4.6677246459        1.2938329939       -4.7065294497
 C        -3.5278949003        1.3852694121       -7.0227949453
 C        -0.0053127648       -3.6106803034       -5.8026680202
 C         2.2200403553       -2.3537450386       -6.1099219765
 C         1.8941350559       -1.8311226080      -13.4241385245
 C         1.3502306764       -4.0855354222      -12.6765517438
 C         8.0653620439       -3.6824627516      -16.5498651164
 C         7.3018474618       -1.3221126375      -17.3049638863
 C         4.5072521276       -2.8100155952      -22.9972415751
 C         6.1601610347       -0.8853218011      -23.1972115281
 C         4.3640312240        3.5682010164      -17.0923999664
 C         2.2465296387        3.9207416416      -18.7055195192
 H         5.1053492362        5.6099091598      -20.7009134697
 H         5.4408514649        5.7837028659      -19.1311384081
 H         3.8800827176        5.7636731840      -19.6123266318
 H         2.4982694792        1.7164976573      -20.6570463844
 H         2.6002609402        0.0685764710      -19.9170616222
 H         5.2886435187        0.8390189012      -20.4082013496
 H         4.3486536282        1.2127771372      -21.8520928624
 H         6.8468747374       -4.3072840744      -21.4217417519
 H         5.2396810298       -3.9447354671      -20.8998244689
 H         7.8184857953       -3.4067114673      -19.2547715935
 H         7.1258641328       -5.0343445246      -19.1897432096
 H         6.9728103719       -3.4179210873      -14.0558234088
 H         5.6652623146       -4.3931580269      -14.3636711854
 H         4.4001722441       -1.7962025521      -13.7529293415
 H         5.2690817897       -2.2643176635      -12.4629650956
 H         3.1732986176       -3.5534072424       -9.2450096003
 H         1.7536178511       -4.0366634284      -10.0820718238
 H         0.7905774862       -1.6840597961      -10.0309523141
 H         1.9163098501       -1.1919048179       -8.7903063246
 H         0.5581308851       -0.3605878832       -4.4432464084
 H        -0.5290119040       -1.6815860428       -4.2583286218
 H        -1.2399333892        1.2183177678       -5.4029934683
 H        -1.8024144225        0.5479391609       -3.6948904109
 H        -4.4295236167       -2.5586962365       -6.8761670587
 H        -4.1632475964       -1.2441823621       -8.1990156445
 H        -6.8029939086       -2.1731324412       -7.3872224719
 H        -5.8684819388       -3.0475424588       -8.6280197956
 H        -8.8155163613       -2.9399818904      -12.1482535977
 H       -10.2713265814       -2.2021833279      -11.6668299777
 H       -10.9042535984       -4.3505428004      -11.4079115878
 H       -10.4734545650       -3.7968631609       -9.6818638005
 H       -10.0434472514       -7.2974887932       -7.1325054046
 H       -10.0760355303       -5.6002873031       -7.2109198653
 H        -7.6177367695       -6.9667055448       -6.1435396249
 H        -9.0415986088       -6.9659532158       -5.0919824434
 H        -6.9672780675       -4.1309228314       -1.4819935238
 H        -8.5537288869       -4.9171001754       -1.3535399728
 H        -8.3058124843       -1.8707179689       -1.3863667347
 H        -8.1305030137       -2.8863333252        0.0937524591
 H       -13.1069661083       -0.9006427478       -1.6644550497
 H       -11.8374234124       -1.7778093398       -2.5828393175
 H       -12.1679517532        1.2214535605       -2.8971544138
 H       -12.9753089839       -0.0401216732       -3.7319079654
 H       -11.8037043201        2.3699570599       -7.2310454451
 H       -11.2961939022        0.8351321531       -8.0719727965
 H       -10.3481980233        2.2879626312       -9.5642909662
 H        -8.8671701708        1.8461438307       -8.6433190779
 H        -6.4848613923        4.8145124885      -11.7734146645
 H        -6.4895914621        5.4242914035      -10.0531796639
 H        -7.5104181718        6.0745865680      -11.4440058721
 H       -11.4427322893        5.4257766920       -9.5488521108
 H       -11.0072007979        4.1670917261      -10.5424368168
 H       -10.4490430284        5.6744493780      -11.0717090332
 H        -9.4470108074        6.6953206519       -8.1293409346
 H        -8.3419134576        6.7979507532       -9.6982306487
 H        -7.7657767587        5.9860322032       -8.2640261203
 H       -10.8691732868        3.6257019635       -4.9605358925
 H       -11.3260792536        2.9499033516       -3.4515271428
 H       -12.2717964953        2.4693742264       -4.8694500716
 H        -8.2816349096        2.4084211685       -4.5142583164
 H        -8.2738131538        0.7953678478       -4.0051061469
 H        -8.9435047818        1.9898672554       -2.9760086694
 H       -12.7931826607       -1.3594228158        1.1598931331
 H       -11.9126642901       -2.7443550046        1.7744591513
 H       -12.7442160417       -2.8371012290        0.2126381179
 H        -9.4385820220       -0.1195970009        1.1405265185
 H        -9.0198008704       -1.8218727902        1.3953086063
 H       -10.4408135840       -1.0684980323        2.2252912195
 H        -6.7660090741       -7.2186593647       -3.9970415412
 H        -8.3823772994       -6.7676506085       -3.1523332362
 H        -6.8330287882       -6.4318943354       -2.4426592528
 H        -5.1459494508       -4.6768368942       -3.4583276759
 H        -5.7069539019       -3.7640497535       -4.8277900859
 H        -5.4677127837       -5.5642968506       -4.9563720946
 H       -11.3500387537       -5.9390796683      -10.2242924096
 H       -11.1862596294       -6.6662764905       -8.5604808927
 H       -11.2565723148       -7.6603352078      -10.0338756124
 H        -7.8010543578       -7.3916516548      -11.2012209850
 H        -9.4070267068       -7.6034858147      -11.7915818244
 H        -8.7818493553       -8.6886298659      -10.5676795076
 H        -8.0818507666        0.5171018809      -10.5128247041
 H        -8.5496304743       -0.4424559572      -11.9571039435
 H        -6.8880149626        0.1423279781      -11.8424132554
 H        -5.4256332909       -1.8464053899      -11.7134099240
 H        -6.6772109145       -3.0182208922      -12.0841955029
 H        -5.7176994316       -3.0111220598      -10.5846375758
 H        -3.9057320651        1.7073311031       -4.0570400641
 H        -5.2495894361        0.6190934077       -4.1318575710
 H        -5.2629786174        2.0924713951       -5.0839660076
 H        -3.1726412825        2.3784104505       -6.6230253752
 H        -4.2354408220        1.6764265388       -7.7981291390
 H        -2.7431193590        0.8999466574       -7.5159092046
 H         0.4382360611       -3.5587197655       -4.7229496554
 H         0.3514419444       -4.4882174642       -6.2474640600
 H        -1.0832307078       -3.4751050537       -5.9079589654
 H         2.4162425628       -2.4665286945       -5.0168856529
 H         2.5840297818       -1.3086124494       -6.2640969873
 H         2.7003399725       -3.1561525376       -6.7535850011
 H         2.2623075306       -0.8989603109      -13.1883172055
 H         0.7466714753       -1.8762738579      -13.4960773250
 H         2.1728601225       -2.0871368438      -14.5013032806
 H         1.5063154582       -4.9038784727      -11.9626974507
 H         1.2961610188       -4.5241821690      -13.6929126179
 H         0.3463651608       -3.7063082321      -12.4924057718
 H         8.6489856957       -3.7667555798      -17.4155817424
 H         7.8033323496       -4.6031940544      -16.1845219819
 H         8.7718189729       -3.2781495234      -15.8229111838
 H         7.8665362918       -1.3513142592      -18.2769489656
 H         7.9979718872       -0.9131993889      -16.5085077035
 H         6.4363885561       -0.6623825441      -17.4630551152
 H         3.6331168794       -3.4330232716      -22.5969015321
 H         5.1403609124       -3.6730978563      -23.2199631970
 H         4.1184161800       -2.3544789315      -23.8892205154
 H         6.9601670545       -0.3097962681      -22.7468246336
 H         5.4590073044       -0.2792992068      -23.7177133554
 H         6.5349060818       -1.6750978399      -23.8542837869
 H         4.8898954502        4.5293455098      -16.9877873914
 H         5.0468516502        2.6662640984      -17.1097403710
 H         3.6756257651        3.3916016080      -16.2853246267
 H         2.1698959300        4.9261238071      -18.2603718693
 H         1.6235838843        3.2093899367      -18.0613275358
 H         1.8376165867        4.0254040946      -19.6577651798
 Na       -8.4729923284       -1.3038132414       -5.4602251437
 Na        3.9040079046       -1.5362195424      -18.1992380518
