232

 C         4.7291227656        5.3207626654      -19.8459281385
 C         4.6316319772        3.8367800577      -19.5781770581
 O         5.2651562163        3.0779742051      -20.2957102822
 C         3.6449224071        3.2203809850      -18.4546701005
 C         3.5683263139        1.7413475743      -18.7301485716
 O         3.8189051792        1.0097321835      -17.7786458942
 C         3.1473673279        1.1847856515      -20.0769137951
 C         4.3386445527        0.5437649365      -20.9988200308
 C         4.3054896825       -0.9455116739      -21.1900794747
 O         3.4665321283       -1.5555462567      -20.5408024964
 C         5.3134270094       -1.6922917125      -22.2196910485
 C         6.3415382071       -2.2599088573      -21.1691971847
 O         7.2092423092       -1.5017211533      -20.7533518296
 C         6.1697471128       -3.7450373178      -20.5254687347
 C         6.9948293360       -3.9572987245      -19.3329171859
 C         6.1093732459       -3.5197305533      -18.1062734900
 O         4.9057916674       -3.7294329756      -18.1681522768
 C         6.8436431653       -2.8531064631      -16.9166735473
 C         5.7872557345       -2.7199265412      -15.8315392917
 O         4.6983505059       -2.3230252383      -16.1198233917
 C         6.0686427756       -3.2674655402      -14.3790689091
 C         5.0354930847       -2.7188306286      -13.4027236761
 C         3.8296686753       -3.5825402622      -13.1095754673
 O         3.9096662428       -4.8076552984      -13.1917937706
 C         2.4524047885       -3.0195504877      -12.6362623777
 C         2.7798528635       -2.4661679373      -11.2375695825
 O         3.3741411152       -1.4122491668      -11.0947154318
 C         2.3594620770       -3.1887029065       -9.9706208888
 C         1.4683854454       -2.1830935460       -9.1497104817
 C         0.6499849814       -2.9080334692       -8.0969070502
 O        -0.2282526639       -3.6883784025       -8.4279267530
 C         0.7908741150       -2.5296074742       -6.5768436148
 C         0.0705964822       -1.1601974800       -6.3134655319
 O        -0.3424538843       -0.4374253963       -7.2246998381
 C        -0.2653018341       -0.7458652147       -4.8584768023
 C        -1.5272037192        0.1387658671       -4.8562022430
 C        -2.9321793031       -0.4606960441       -5.1676250071
 O        -3.1924457186       -1.6620797616       -5.0997282772
 C        -4.0190320020        0.4678467601       -5.8605757205
 C        -5.2040456058       -0.4888962888       -6.4717677024
 O        -6.3153571691       -0.4894018017       -5.9533467637
 C        -4.8099836824       -1.6051731627       -7.4296493052
 C        -5.9687095854       -2.0663158134       -8.3160924061
 C        -6.5022875395       -1.0309500993       -9.2642994910
 O        -6.2934182555        0.1615985760       -9.0960695804
 C        -7.2844625949       -1.4069004283      -10.5442070726
 C        -8.6613765640       -2.1322066290      -10.0724761099
 O        -9.0441974554       -1.9982519749       -8.9319322039
 C        -9.4640953998       -2.8505540176      -11.2130804402
 C       -10.0142719741       -4.1535395593      -10.6504512044
 C        -8.9286029698       -5.2151901302      -10.4826934350
 O        -7.8075066369       -5.0465206767      -10.9650806805
 C        -9.3156389382       -6.5283409733       -9.8190871448
 C        -8.4882890164       -6.7729873992       -8.4391208028
 O        -7.2899238762       -6.9200887266       -8.3266454710
 C        -9.3694031275       -6.4944577031       -7.1415740928
 C        -8.4434992047       -6.3954996633       -5.9489300650
 C        -8.1346225487       -4.9931638893       -5.4805664740
 O        -8.3809448028       -3.9937665629       -6.0570283620
 C        -7.3707388318       -4.9613092824       -4.0678417390
 C        -7.9573418995       -3.8461690452       -3.1121561683
 O        -8.4998004756       -2.8707019048       -3.5697838725
 C        -8.0087115125       -3.9604190866       -1.4821943185
 C        -8.6675466539       -2.6602409431       -0.9199851051
 C       -10.1520499715       -2.8505430901       -0.6277032414
 O       -10.7854251136       -3.7103546824       -1.2189048882
 C       -10.8702609174       -1.7559357642        0.1928622995
 C       -11.0445431308       -0.5364882843       -0.9704697667
 O       -10.3528948655        0.4415473730       -0.9499136545
 C       -12.1177820714       -0.8439565647       -1.9718921392
 C       -12.1346226361        0.2306578388       -3.1431039943
 C       -10.9663320267        0.1382684003       -4.1570594210
 O       -10.5266710089       -0.9850586916       -4.3730468670
 C       -10.2533372344        1.4474258973       -4.7892295025
 C        -9.8849767940        1.1945106561       -6.2809082821
 O        -8.9420380723        0.5646314924       -6.5654976910
 C       -10.8109675991        1.7777070825       -7.3765661868
 C        -9.9521643471        2.3395332260       -8.5114254605
 C        -9.6578004695        3.8722308679       -8.2378234935
 O        -9.7794272459        4.2841723081       -7.1165849437
 C        -9.2880492406        4.8831994392       -9.4719863193
 C        -8.2585492793        4.3278132188      -10.4567082302
 O        -8.1704703427        3.0951249369      -10.6917944299
 C        -7.2047299898        5.2957717589      -10.9649992028
 C       -10.5828465300        5.1724444668      -10.1727207209
 C        -8.8151251946        6.1493788275       -8.8023537569
 C       -11.2502025544        2.6445769111       -4.7232478827
 C        -9.0380257047        1.5918975139       -3.9137712892
 C       -12.1496133111       -2.2040037937        0.7927138250
 C       -10.0572834026       -1.1103973325        1.3317396107
 C        -7.3478466968       -6.3523314356       -3.3756571984
 C        -5.9030227078       -4.6102175042       -4.3560397209
 C       -10.9481589010       -6.7698582990       -9.5865960047
 C        -8.8833329363       -7.6295226605      -10.8214639403
 C        -7.7457361325       -0.0399274639      -11.2125318547
 C        -6.4824283048       -2.3724890176      -11.3935229483
 C        -4.6156388241        1.2925816182       -4.7120037980
 C        -3.4078789290        1.4826659951       -6.9731137357
 C        -0.0669725151       -3.6244334601       -5.8073127369
 C         2.2936194502       -2.4320662332       -6.2155797691
 C         2.0066830881       -1.9185536262      -13.5646766424
 C         1.4423478571       -4.2561255675      -12.5401309322
 C         8.0766371142       -3.7469954929      -16.5501510974
 C         7.2798183672       -1.4410905635      -17.3190919576
 C         4.5739457339       -2.8098943210      -22.9447332968
 C         6.1170865688       -0.7535614665      -23.1259347323
 C         4.2308311589        3.5971738335      -17.1170331998
 C         2.3063019562        3.9955199734      -18.7267249311
 H         4.7218125951        5.7140273983      -20.8952275091
 H         5.7667943727        5.6637366413      -19.5617297635
 H         4.1520023397        6.0456196571      -19.3368802684
 H         2.7696521169        2.0681326197      -20.6722888594
 H         2.3582575577        0.4365477179      -19.9156876237
 H         5.3352526076        0.8229418506      -20.5657983986
 H         4.2852197626        1.1382745791      -21.9128663010
 H         6.4944511466       -4.3875547863      -21.3492102454
 H         5.1038534109       -3.9033913785      -20.4484418774
 H         7.9493039504       -3.3277998632      -19.2703044862
 H         7.2912481463       -5.0154874469      -19.2933669362
 H         7.0742485404       -3.1363837244      -14.0838265221
 H         6.0649662004       -4.3713912906      -14.4312463908
 H         4.6907210415       -1.7277934371      -13.6656300259
 H         5.4868246079       -2.5239718050      -12.4329594320
 H         3.3050390260       -3.4204520786       -9.4366698101
 H         1.8427038333       -4.1364680916      -10.1316621898
 H         0.7944184719       -1.6914767083       -9.9002017771
 H         2.1091943491       -1.2844111080       -8.7995378198
 H         0.4599956015       -0.1354531812       -4.2816347327
 H        -0.3384592440       -1.6337612799       -4.3118616731
 H        -1.3881269595        0.9216677754       -5.6560037774
 H        -1.5462052825        0.5697220413       -3.8743890338
 H        -4.6281348260       -2.4942505711       -6.8565533496
 H        -3.9747836677       -1.2075873766       -7.9949672563
 H        -6.6910707581       -2.3403060110       -7.5035341941
 H        -5.5709439254       -3.0094362634       -8.8352396042
 H        -8.8722252742       -2.8668662350      -12.1633032997
 H       -10.3389616317       -2.2088985235      -11.5408422224
 H       -10.6993958870       -4.5184705827      -11.4266694725
 H       -10.5587091453       -3.7794186575       -9.7767699791
 H       -10.1070588825       -7.2506894265       -7.0874869887
 H        -9.9715741632       -5.6153300982       -7.3140117836
 H        -7.6162963011       -7.0474958487       -6.1601368261
 H        -8.9633866943       -6.7913064536       -5.0855879263
 H        -7.0176857086       -3.9977200141       -1.1867399290
 H        -8.5842961073       -4.8818698462       -1.1073885658
 H        -8.6167587039       -1.8843017792       -1.7396531960
 H        -8.0302422529       -2.2097725891       -0.0507791359
 H       -13.1024768178       -0.8830168721       -1.4750445205
 H       -11.8319730384       -1.8789607632       -2.3110496009
 H       -12.0733416675        1.2556687799       -2.7419360084
 H       -13.0149186120        0.1346708343       -3.6975967130
 H       -11.6994719283        2.3832814234       -7.0461798973
 H       -11.2916688660        0.7872896446       -7.7725398929
 H       -10.6090883996        2.2072873264       -9.4241874106
 H        -8.9561686138        1.9239219721       -8.6984752345
 H        -6.4529844552        4.7437952976      -11.5762444640
 H        -6.7128848248        5.6467053677      -10.0693813239
 H        -7.5188437205        6.0650260866      -11.6637339499
 H       -11.3886699000        5.5470805707       -9.5893417794
 H       -11.0281218048        4.1872457602      -10.5069950279
 H       -10.4253904829        5.7110988593      -11.0277240310
 H        -9.3792874254        6.2394243382       -7.8787650023
 H        -8.8872845967        6.9438063138       -9.5636927424
 H        -7.7346352719        6.1142306633       -8.5585581546
 H       -11.0545935247        3.5296249612       -5.2840764382
 H       -11.2855586384        3.0142966101       -3.7092206412
 H       -12.2366112244        2.3343883231       -4.9746919028
 H        -8.3516345620        2.3095399196       -4.3610448717
 H        -8.4448869238        0.7295025075       -3.8218732292
 H        -9.2660061354        1.9411154670       -2.9174306722
 H       -12.6402848491       -1.3133637771        1.1967461160
 H       -11.9388676151       -2.9208097981        1.6499187679
 H       -12.8466156865       -2.6648456192        0.0787224572
 H        -9.9567330022       -0.0542118313        1.2737327661
 H        -9.0300855431       -1.4974185176        1.3933485547
 H       -10.5880208103       -1.2956597877        2.2873249448
 H        -6.8444920614       -7.1634093894       -3.9648188191
 H        -8.3511269688       -6.6076827822       -3.0949876754
 H        -6.7833476965       -6.2365337102       -2.4107423173
 H        -5.3452952405       -4.6459646795       -3.4181450316
 H        -5.7867738090       -3.5797633631       -4.6572346654
 H        -5.3912667287       -5.3179133206       -5.0652356181
 H       -11.5522611274       -6.1656065898      -10.2874668513
 H       -11.3083847320       -6.6286945041       -8.5344236162
 H       -11.1774099242       -7.7908131070       -9.8943288208
 H        -7.8067507035       -7.7029725140      -11.0616635560
 H        -9.4129138377       -7.3802159101      -11.7667685461
 H        -9.2395512639       -8.6285110516      -10.4909980276
 H        -7.6197338983        0.6602347261      -10.4587014517
 H        -8.7831145281       -0.2412158650      -11.4500951854
 H        -7.1269600626        0.1355110011      -12.0884932466
 H        -5.6295775211       -2.0228630553      -12.0737636557
 H        -7.0562426581       -3.0680559259      -11.9607002594
 H        -5.8180137573       -3.0048253920      -10.7049166244
 H        -3.8318930499        1.6522442993       -3.9983080370
 H        -5.2329592056        0.6335019111       -4.1138351561
 H        -5.1966044968        2.1399288458       -5.1212379378
 H        -3.0076022025        2.3728126554       -6.5663693699
 H        -4.2840093345        1.8141025544       -7.5123567298
 H        -2.7239831812        1.1054512239       -7.7560440147
 H         0.2474762689       -3.5980413291       -4.7672338065
 H         0.0887029995       -4.5768146689       -6.2615330297
 H        -1.0674733990       -3.3203841244       -5.9566981382
 H         2.4427695277       -2.6634651034       -5.1113532932
 H         2.6341647802       -1.4810005853       -6.2864050382
 H         2.7890354318       -3.2559195533       -6.8323977474
 H         2.4534118404       -0.9714639874      -13.1341488927
 H         0.8986077394       -1.8650954548      -13.4910628010
 H         2.2603721938       -1.9910247327      -14.5701266940
 H         1.7799110793       -5.0268229842      -11.8568583358
 H         1.3048374117       -4.6929167886      -13.5279712989
 H         0.4033176778       -3.9709766261      -12.2330334926
 H         8.7339760665       -3.7512283944      -17.3557301444
 H         7.7907595635       -4.7459879538      -16.2423031823
 H         8.6233157585       -3.3564107684      -15.7407907966
 H         7.4493247503       -1.4392752918      -18.4113821328
 H         8.2253889451       -1.2365607359      -16.9065766073
 H         6.5313622694       -0.6411784082      -17.0873470389
 H         3.9694994471       -3.5322257477      -22.4009162843
 H         5.1862148077       -3.5277947929      -23.3976225437
 H         3.9180263123       -2.3260940614      -23.7360284857
 H         7.0246798830       -0.4943905007      -22.5779547538
 H         5.4932700901        0.1773261610      -23.4116309674
 H         6.3981992595       -1.3239300276      -23.9367041341
 H         4.5869892813        4.5852684543      -17.2603193743
 H         4.9621167661        2.8755542258      -16.7250566526
 H         3.4048793457        3.6971457653      -16.4203470510
 H         2.5224162566        5.1189063296      -18.7168371434
 H         1.5785221747        3.7070630454      -17.9669762100
 H         1.8610644531        3.8778209703      -19.7205640344
 Na       -8.4020835741       -1.4743924498       -5.5219691788
 Na        3.9158011687       -1.4711398798      -18.0542659002
