232

 C         4.8024495975        5.5144695215      -19.8216959847
 C         4.5740269415        4.0443911837      -19.7750082933
 O         5.1069844038        3.2932311486      -20.5939575130
 C         3.5902759850        3.3793258509      -18.5875917654
 C         3.5864971674        1.8180557368      -18.8336824081
 O         3.6902367700        1.0755373358      -17.8618667013
 C         3.1888666106        1.2398774141      -20.1745382576
 C         4.3654750392        0.5684320353      -20.8516498517
 C         4.2656437544       -0.9004078826      -21.0489682893
 O         3.4337628932       -1.5671322005      -20.4385511473
 C         5.3073107527       -1.5272689930      -22.1325925885
 C         6.3960732624       -2.2374490437      -21.0987349183
 O         7.2744660729       -1.5698329379      -20.6181840223
 C         6.2169576599       -3.7296070780      -20.8835930096
 C         6.9834968016       -4.1037615917      -19.6085944986
 C         6.1698248293       -3.6841885108      -18.2792218834
 O         4.9744000204       -3.6774229851      -18.3805184696
 C         6.8334561692       -3.0245926983      -16.9145222857
 C         5.7846216937       -2.7347763751      -15.7695953727
 O         4.6617833019       -2.2032479337      -15.9864001215
 C         6.1486071018       -3.0266505419      -14.3541162884
 C         5.1486473067       -2.6895857016      -13.2705123535
 C         4.0267621152       -3.7617543947      -13.1258865351
 O         4.2413848242       -4.8949740910      -13.3725013488
 C         2.6237764160       -3.1818197967      -12.7050819340
 C         2.8725389979       -2.4788436338      -11.3273895886
 O         3.4806168278       -1.4273688237      -11.3061815021
 C         2.3279669255       -3.0955827954       -9.9839011577
 C         1.4966382442       -2.1603768514       -9.0340305725
 C         0.6098666437       -3.0412203920       -8.1031576658
 O        -0.2250566395       -3.7824576728       -8.5290871236
 C         0.6614086812       -2.7464702999       -6.5032534884
 C         0.0129437715       -1.3253317543       -6.4275546770
 O        -0.2723801793       -0.6070838686       -7.3510233701
 C        -0.3959602233       -0.8925560634       -5.0388414803
 C        -1.6248398162        0.1153955446       -4.8092691863
 C        -2.8987740763       -0.6020864691       -5.2101810188
 O        -3.0159517795       -1.8064669059       -5.1859425080
 C        -3.9856687790        0.3947946064       -5.8472594802
 C        -5.2632105219       -0.4889635575       -6.4285503018
 O        -6.3713620460       -0.4049782084       -5.9401082066
 C        -4.7029818336       -1.4210838037       -7.5096911734
 C        -5.8670960299       -2.0180583791       -8.4494022501
 C        -6.3756744056       -0.9253085751       -9.3481398889
 O        -6.0405114364        0.2376830372       -9.1665169628
 C        -7.3791744197       -1.2374541338      -10.5602773522
 C        -8.6740766349       -2.0377610237       -9.9562041858
 O        -8.9133807132       -2.0500684928       -8.7469487066
 C        -9.7194064347       -2.8077866210      -10.9358145804
 C       -10.0078873840       -4.2541399798      -10.5723516768
 C        -8.8930923682       -5.2294522844      -10.3759644902
 O        -7.7527702763       -5.0703914804      -10.6516064596
 C        -9.3918752677       -6.6997303490       -9.7828432870
 C        -8.5810588676       -6.6865876785       -8.3800477874
 O        -7.3951298009       -6.8782057322       -8.3877425964
 C        -9.3838874580       -6.4135877982       -6.9779361942
 C        -8.4741715967       -6.4460032364       -5.7630243045
 C        -7.9831630209       -5.0766736295       -5.3189766402
 O        -8.2086778345       -4.1116679344       -6.0816428376
 C        -7.3705039124       -4.8427585634       -3.9843799842
 C        -8.1923115592       -3.6359823705       -3.1317810067
 O        -8.6006481926       -2.6361256443       -3.6264742650
 C        -8.0322282266       -3.8023055262       -1.6187649518
 C        -8.5428131813       -2.5728284388       -0.8120737844
 C       -10.0346247632       -2.7024749374       -0.5823238564
 O       -10.5995700812       -3.7139897727       -0.9271769962
 C       -10.9027010803       -1.6065620920        0.1399865602
 C       -11.1896902661       -0.4523560410       -0.8454792330
 O       -10.4018627335        0.4879199238       -0.9272465362
 C       -12.1534135247       -0.7776090954       -2.0484476721
 C       -12.0656358811        0.2838782584       -3.0549918824
 C       -10.9618925669        0.0582860532       -4.1515013143
 O       -10.5585068998       -1.0447156531       -4.3555504786
 C       -10.3274310368        1.4713248887       -4.7743458631
 C        -9.8798595753        1.1695958028       -6.2057590059
 O        -8.9163276104        0.3356963740       -6.3424667427
 C       -10.7017997414        1.4958781018       -7.5425013197
 C       -10.0251124080        2.3443439071       -8.5821604373
 C        -9.6181484825        3.7774096439       -8.1916141624
 O        -9.5656614910        4.0774853842       -7.0202079067
 C        -9.3770870930        4.8967662832       -9.2864612781
 C        -8.4546095315        4.3730321590      -10.4372856399
 O        -8.4292539454        3.2174020140      -10.6526647582
 C        -7.4634656643        5.3103596204      -11.0472686119
 C       -10.5850401228        5.0748719570      -10.1922539912
 C        -9.0647491380        6.2210365493       -8.5834740047
 C       -11.2252184836        2.6221196641       -4.6267508663
 C        -9.0801253582        1.6847021705       -3.8031927255
 C       -12.2734911604       -2.2736095932        0.5329686878
 C       -10.2106564510       -1.0554003205        1.3560299134
 C        -7.2226405694       -6.0725138020       -3.1262289854
 C        -6.0045828530       -4.1596742407       -4.2882858114
 C       -10.8784158868       -6.8067182637       -9.5412927574
 C        -8.7135064749       -7.8782666041      -10.6138641289
 C        -7.8950205677       -0.0154144718      -11.4549331360
 C        -6.6012579795       -2.2177160214      -11.5604157962
 C        -4.5268714452        1.2378899423       -4.6556801812
 C        -3.4408444655        1.2999293438       -6.9702267711
 C         0.0740110817       -3.8308307302       -5.6184198335
 C         2.2085942884       -2.7325159213       -6.1679341166
 C         2.0998557780       -2.1448430886      -13.7013951763
 C         1.5140146394       -4.2966021052      -12.7377578504
 C         8.0529396872       -3.8278772265      -16.4385277714
 C         7.3066604718       -1.5918812776      -17.4138827437
 C         4.5327436543       -2.6136334618      -22.9907715787
 C         5.9147284056       -0.4324801006      -23.1395870842
 C         4.1057729509        3.7379665208      -17.0664450851
 C         2.1973605275        3.8469535428      -18.7893318526
 H         3.8313205270        5.9748073863      -20.0264313463
 H         5.3373252066        5.9704851481      -20.6339852235
 H         5.0939131801        6.1166321023      -18.8939123879
 H         2.7885706437        1.9796948135      -20.8160409083
 H         2.4945927527        0.4522193580      -19.8421541901
 H         5.2873479421        0.8751175010      -20.4116872348
 H         4.4191111216        1.0572695098      -21.8279748914
 H         6.3759658607       -4.1192474297      -21.8756921945
 H         5.1127189669       -3.8686083326      -20.7221891048
 H         7.9373863626       -3.7764813673      -19.4737216844
 H         7.0130789168       -5.2170052852      -19.4535721111
 H         7.1809666500       -2.6118793692      -14.1255798721
 H         6.4633362251       -4.0829604744      -14.3404596222
 H         4.6516221118       -1.7151634893      -13.4924393892
 H         5.7025483082       -2.4791668443      -12.3169475926
 H         3.1303339751       -3.5727736005       -9.3853187146
 H         1.6617677715       -3.9041702213      -10.3389683761
 H         0.7957583869       -1.6581944560       -9.6765353700
 H         2.1451012552       -1.4485767790       -8.6539451888
 H         0.4461637890       -0.2954121926       -4.7177002023
 H        -0.3702068827       -1.7396247782       -4.2883649935
 H        -1.5386699089        0.9250717933       -5.4750112436
 H        -1.5578305355        0.4428797244       -3.7638460375
 H        -4.3371105986       -2.2804214519       -6.9062713727
 H        -3.9092244831       -0.9329694502       -8.0837598876
 H        -6.6706202224       -2.4602323014       -7.8500348388
 H        -5.3447389370       -2.7630346431       -9.0173184217
 H        -9.2873028301       -2.7989988346      -11.9217801105
 H       -10.4787686185       -2.0720316015      -11.0480259918
 H       -10.7553736184       -4.6956064440      -11.2325716100
 H       -10.4583492559       -4.2017245329       -9.5873821185
 H       -10.2791363368       -7.0634655084       -7.0992316115
 H        -9.8490206833       -5.4009477479       -7.0020663075
 H        -7.5877349649       -7.0463711427       -6.1029533079
 H        -8.8818256409       -6.9482470510       -4.8602478733
 H        -6.8928887114       -3.9529621506       -1.4040274428
 H        -8.5182891739       -4.7165866134       -1.3607275927
 H        -8.1967368883       -1.6410534223       -1.3120370963
 H        -7.9748468770       -2.5013285537        0.0864356609
 H       -13.1972363892       -0.7409844230       -1.7166180432
 H       -11.8344150335       -1.7524305135       -2.3652865937
 H       -11.9227039481        1.2258730733       -2.4987680978
 H       -13.0462286102        0.3511551891       -3.6973149130
 H       -11.6217825506        1.8729765413       -7.2462095160
 H       -10.8905222999        0.5553364362       -7.9015220121
 H       -10.7074510603        2.4651666849       -9.3748349030
 H        -9.0968607697        1.9030333685       -8.9750536256
 H        -6.7637544416        4.8089206889      -11.6608084865
 H        -6.9474852430        5.8478852105      -10.2141890169
 H        -7.9527362759        6.0263485024      -11.7133809148
 H       -11.4667125544        5.4370961666       -9.6169793742
 H       -10.9955813319        4.2427797200      -10.6388480559
 H       -10.3435261371        5.8310268535      -11.0176173332
 H        -9.7437219156        6.2305249098       -7.7565723647
 H        -8.9732990591        7.0114541366       -9.2760475710
 H        -8.1209234527        6.1291637318       -8.1423255259
 H       -10.7730173947        3.5825961908       -5.0100736830
 H       -11.4907136995        2.8462967652       -3.6205071176
 H       -12.1235380703        2.6495865123       -5.2498926930
 H        -8.6024237586        2.6679163408       -3.7651062764
 H        -8.2307568875        0.9493101342       -3.9240858327
 H        -9.4570203633        1.5054855316       -2.8002983803
 H       -12.9419432828       -1.5658322129        1.0830361161
 H       -12.0363167837       -3.1245732542        1.1873336773
 H       -12.8378025280       -2.5705428924       -0.4022582980
 H       -10.6351192818       -0.0423253346        1.5352508135
 H        -9.1507390968       -1.0055770707        1.2160706064
 H       -10.4174151048       -1.6224983645        2.2210814582
 H        -6.7845078643       -6.8746095407       -3.7044304462
 H        -8.2554293822       -6.3875305742       -2.8213357302
 H        -6.6570354340       -5.8326596913       -2.2392551426
 H        -5.3926435002       -4.0353498809       -3.3891101637
 H        -6.1564342091       -3.1767204745       -4.7728522543
 H        -5.4228981217       -4.7142208933       -4.9434511346
 H       -11.2990814632       -7.4181007376      -10.3020001122
 H       -11.3268885023       -5.8413566363       -9.4537598585
 H       -11.0846501939       -7.3967569389       -8.6772412840
 H        -7.6139913235       -7.8383137006      -10.4763676864
 H        -8.9611411635       -7.8709788788      -11.6818080189
 H        -9.0267368399       -8.8430535991      -10.1955396884
 H        -7.4460287436        0.8998458788      -10.9844700639
 H        -8.9574795978       -0.1133700582      -11.3783331185
 H        -7.4984926750       -0.2046290311      -12.4412095298
 H        -5.6389952430       -1.8783332348      -11.7334786371
 H        -7.1445407973       -2.1159305918      -12.5269434251
 H        -6.4092719348       -3.2328781472      -11.3334970534
 H        -3.8338013754        1.9693831005       -4.2194454434
 H        -4.8120789957        0.5926177754       -3.7817547576
 H        -5.4264386618        1.7057869524       -5.1010601615
 H        -2.5971729802        2.0082702405       -6.6833671999
 H        -4.2579326797        1.8798984613       -7.4395351161
 H        -3.0449830668        0.7631420649       -7.8048565217
 H         0.3111250608       -3.5526302614       -4.5333604453
 H         0.5068128761       -4.7243240363       -5.9921547100
 H        -1.0003093539       -3.8794675583       -5.8011792104
 H         2.3285452877       -2.5980144825       -5.1410319999
 H         2.6507580480       -1.8315735255       -6.6787175768
 H         2.6358551303       -3.6962350599       -6.2583640496
 H         2.6960088300       -1.3240574467      -13.8385687689
 H         1.1512398571       -1.7793895919      -13.2650769986
 H         2.0471861864       -2.6767619678      -14.7247408517
 H         1.8009555595       -5.2985222242      -12.4086705080
 H         1.0172099456       -4.3142681549      -13.7169567655
 H         0.7585869221       -3.9714642699      -12.0656363512
 H         8.8495265623       -3.7899355204      -17.2566700828
 H         7.8174043875       -4.8609943960      -16.1413092567
 H         8.5101606407       -3.3487038475      -15.4873475914
 H         7.3689721427       -1.4826682428      -18.4770353793
 H         8.3526370431       -1.3323103858      -17.1140408982
 H         6.6052380538       -0.9454369655      -17.0112213552
 H         4.1401354151       -3.4901047102      -22.4711169531
 H         5.1809634843       -3.2475224635      -23.6391139782
 H         3.8466178861       -2.2262616785      -23.6510328057
 H         6.4720274040        0.3372566699      -22.5879923330
 H         5.0939526052       -0.1115697430      -23.7141452353
 H         6.7000506904       -0.9771799039      -23.7853492612
 H         3.9852154776        4.8332520211      -17.0100325951
 H         5.1259619914        3.3758336755      -17.0458961927
 H         3.5181554233        3.3376899901      -16.2706196696
 H         2.3624548492        4.8731716741      -18.8997751780
 H         1.5724755487        3.5028758133      -17.9228793771
 H         1.6816480983        3.6375373818      -19.7110836132
 Na       -8.2545716330       -1.9132378407       -5.7856896552
 Na        3.8409079898       -1.2648869418      -18.0521075469
