232

 C         4.6126414583        5.6735782428      -19.5821915456
 C         4.3795411344        4.2011078228      -19.7654044824
 O         4.7593489311        3.6472259174      -20.7894914779
 C         3.4616330907        3.4216152611      -18.7174571438
 C         3.4507585769        1.9259583827      -18.9153270089
 O         3.8789665420        1.1868303163      -17.9784614006
 C         3.0536474479        1.1856031129      -20.1870949472
 C         4.3644221653        0.6126893115      -20.9255387348
 C         4.4071491216       -0.8204480575      -21.0414045275
 O         3.7625543571       -1.5446113410      -20.3000560085
 C         5.3103977426       -1.5167353474      -22.0745123602
 C         6.4378187515       -2.1764677991      -21.2288493770
 O         7.1409336822       -1.4781950961      -20.5362814099
 C         6.3922987917       -3.7162923841      -21.0121756913
 C         6.7559057480       -3.9993599249      -19.5454487579
 C         5.9619731877       -3.4561446818      -18.3451057088
 O         4.7972562038       -3.2281684892      -18.4610266299
 C         6.7450652259       -3.0132548647      -17.1305791226
 C         5.8549284114       -2.5979624765      -15.8915955331
 O         4.7947733769       -1.9261688726      -16.0378070808
 C         6.3326255314       -3.0791323966      -14.5111100173
 C         5.3978604333       -2.6803606768      -13.3744912347
 C         4.2481776489       -3.6985315208      -13.3390888635
 O         4.3942562084       -4.8277561599      -13.5735167665
 C         2.7972841447       -3.3424986128      -12.8221741092
 C         2.7998521295       -2.5877158280      -11.4221401474
 O         3.3562227450       -1.5189691071      -11.2574607909
 C         2.1833479436       -3.3207024377      -10.2304526191
 C         1.5075455278       -2.3833263449       -9.2471246332
 C         0.7487204744       -3.1803145518       -8.1569060804
 O         0.0603765217       -4.0910785493       -8.5468866172
 C         0.7191142514       -2.9220682252       -6.6385516966
 C        -0.0579804599       -1.5287837216       -6.3404242992
 O        -0.3547359304       -0.7602126439       -7.2046272188
 C        -0.3357096930       -1.0875946919       -4.7999587262
 C        -1.3656160170       -0.0057237625       -4.8983886355
 C        -2.7679844161       -0.7152518002       -5.4223334806
 O        -2.9030108742       -1.8913035036       -5.3072297337
 C        -3.9287445913        0.2670562157       -5.9002567617
 C        -4.9721023813       -0.7134107681       -6.3940923660
 O        -6.0016586136       -0.9722350695       -5.7974927498
 C        -4.5520940839       -1.5728910029       -7.6405650253
 C        -5.7735003886       -1.7772506674       -8.5160091456
 C        -6.2914347794       -0.7383567956       -9.4803857071
 O        -5.8263185279        0.3902487190       -9.4783061790
 C        -7.4351908217       -1.2778616309      -10.4913153479
 C        -8.5538782026       -2.1369807357       -9.7780053444
 O        -8.8313629740       -2.2375202049       -8.5668332179
 C        -9.5289539402       -2.9583000694      -10.7228355795
 C       -10.1270622230       -4.2095678004      -10.0192007813
 C        -9.0710625191       -5.2305616149      -10.0641728193
 O        -7.9462413819       -4.9803421709      -10.4996560824
 C        -9.3391859881       -6.7375123143       -9.4953270179
 C        -8.6804955812       -6.7556362344       -8.0014281806
 O        -7.4984543798       -6.7870306109       -7.9230948574
 C        -9.4100186023       -6.5315989615       -6.7441881728
 C        -8.5235902312       -6.2834424770       -5.4032185615
 C        -7.9091844684       -4.8955113210       -5.2984785976
 O        -8.0764277084       -3.9776852927       -6.1176650269
 C        -7.1732782656       -4.5143683834       -3.9530231884
 C        -7.9945198413       -3.4335920347       -3.0602925666
 O        -8.5307052623       -2.5328758557       -3.6211662689
 C        -7.7806064728       -3.5087824987       -1.5446742255
 C        -8.6719049328       -2.4189388704       -0.7875267857
 C       -10.0926229772       -2.7697802822       -0.4669611084
 O       -10.5800030616       -3.8630559829       -0.6637773716
 C       -11.0539786507       -1.6189130175        0.1825705248
 C       -11.2313372894       -0.5583879045       -0.9496080072
 O       -10.5146055032        0.4358607316       -0.9012421176
 C       -12.1994922086       -0.8433494357       -2.1525257597
 C       -12.1596091724        0.3222007417       -3.1555918133
 C       -10.9961981823        0.1330970857       -4.1820437212
 O       -10.6893469842       -0.9604264819       -4.5963484320
 C       -10.2847483564        1.5241046369       -4.8255097265
 C        -9.9717758012        1.1016792708       -6.2377233301
 O        -9.0291094105        0.3619782789       -6.5373480576
 C       -10.8341995503        1.4768467187       -7.4452528033
 C        -9.9785380975        2.1472982743       -8.5231077881
 C        -9.5304675926        3.5513143742       -8.0311821561
 O        -9.2677075310        3.8486526807       -6.8693022050
 C        -9.6350708351        4.7493775209       -9.2116822643
 C        -8.6057409880        4.3467976012      -10.4013380092
 O        -8.5416158014        3.2056286474      -10.6905004591
 C        -7.7450696687        5.5473405336      -10.8639810655
 C       -11.0714934697        4.8461668118       -9.6482153791
 C        -9.2885899571        6.0789095293       -8.4757824016
 C       -11.1681150369        2.8197206539       -4.8291550480
 C        -8.9569041854        1.7913027639       -4.0925056885
 C       -12.4822731339       -2.2356778506        0.4789498155
 C       -10.3216775740       -0.9882353211        1.3897883003
 C        -6.9520567308       -5.8068879859       -3.1221298806
 C        -5.8749016458       -3.8033779540       -4.3172329457
 C       -10.8421640066       -7.0569604916       -9.4901462411
 C        -8.4541000405       -7.6545939484      -10.4245619029
 C        -8.2720427829        0.0063418612      -11.2048846317
 C        -6.7399530959       -1.9997889112      -11.6208419438
 C        -4.5558031751        1.0163574715       -4.6937705229
 C        -3.6017415342        1.2803658382       -7.0340027538
 C        -0.1169754820       -4.1216089200       -6.0056758077
 C         2.1333162463       -2.7516824947       -6.0549204949
 C         2.1948192015       -2.3088254447      -13.8309783070
 C         1.9615715381       -4.5925599398      -12.8443439796
 C         7.7693122358       -4.1345806967      -16.7861113484
 C         7.5239001834       -1.6796033211      -17.5406651792
 C         4.4060639175       -2.4505916070      -22.8344721754
 C         6.1293627993       -0.5072138649      -23.0204086387
 C         3.9968045434        3.8567742323      -17.3351211454
 C         2.0769060706        3.9884953676      -18.8542629897
 H         4.7739399419        6.1843664709      -18.6344171788
 H         3.7571880307        6.1758736376      -20.0166610745
 H         5.5489006807        6.0092326970      -20.1374643100
 H         2.6843559670        1.9976313999      -20.8494701216
 H         2.3670947432        0.3891672754      -19.8989583464
 H         5.3032639566        0.9812067385      -20.4987212916
 H         4.4261901677        1.1201460805      -21.9315330377
 H         7.0499723523       -4.4206168554      -21.5665277357
 H         5.3330864732       -3.9203466639      -21.2102593797
 H         7.8051879069       -3.8433279757      -19.4055980266
 H         6.7068570904       -5.1017846532      -19.5047393402
 H         7.3577318761       -2.7546017857      -14.3177407014
 H         6.5169020019       -4.1305109660      -14.5561889031
 H         5.0269905342       -1.6720088403      -13.5706233334
 H         5.9430193029       -2.7348478771      -12.4311138575
 H         3.1041447885       -3.7373536300       -9.7889968026
 H         1.5325357054       -4.2052878925      -10.4757989480
 H         0.7465245871       -1.8738477140       -9.8934385717
 H         2.2782658033       -1.6690506780       -8.9049520381
 H         0.6283455279       -0.7624452807       -4.4559263302
 H        -0.6412860303       -1.9040395098       -4.1279529975
 H        -1.0577103638        0.4442672595       -5.8267466669
 H        -1.5405214711        0.7684156821       -4.1427673265
 H        -4.2122022656       -2.4747604034       -7.1443921800
 H        -3.7357744484       -1.1601782714       -8.2158613676
 H        -6.6876620181       -1.9229104689       -7.8052781569
 H        -5.6002040700       -2.7846982419       -8.9957908521
 H        -8.9835082786       -3.2594991873      -11.6463273425
 H       -10.3615199990       -2.2549224688      -11.0952314506
 H       -11.0575340787       -4.4109870279      -10.4853459978
 H       -10.4169481291       -4.0329206807       -8.9384497548
 H       -10.1416771359       -7.2955368315       -6.4495928934
 H       -10.0622875621       -5.7179600879       -6.9033528198
 H        -7.7635920586       -7.0477221682       -5.2299843302
 H        -9.2188508298       -6.4597224977       -4.6410757144
 H        -6.6234372010       -3.3064538110       -1.4320613624
 H        -7.9126640818       -4.4582478740       -1.0905064822
 H        -8.5360251017       -1.3873160689       -1.1590143316
 H        -8.0964756445       -2.2230163232        0.1451659409
 H       -13.1843896566       -0.8368275870       -1.6562300104
 H       -11.9327774491       -1.7806920337       -2.6774719477
 H       -12.0586114179        1.2789771470       -2.7066438673
 H       -13.0497159772        0.3476067590       -3.8252583466
 H       -11.6172495377        2.1714677150       -6.9887364464
 H       -11.3972464122        0.5765480760       -7.7934370617
 H       -10.5832415867        2.3880270899       -9.4417722088
 H        -9.1060971414        1.4980732465       -8.7231325412
 H        -7.1720058966        5.2606192732      -11.7511718268
 H        -6.9389860481        5.8615882683      -10.1996961920
 H        -8.4803549147        6.3403773104      -11.1084044299
 H       -11.7512693903        4.9673272719       -8.8271954790
 H       -11.4274748913        4.0678967303      -10.2573913798
 H       -11.2753282364        5.7873279528      -10.2525602817
 H       -10.1705466168        6.3279517037       -7.8456034840
 H        -9.0301373706        6.8560026826       -9.2228832430
 H        -8.3972884671        5.9049012515       -7.8263272027
 H       -10.9198127899        3.5134279793       -5.5894891957
 H       -11.0733877030        3.3459620199       -3.9194581037
 H       -12.2384830475        2.7736395144       -4.9998575712
 H        -8.5246206551        2.6735096408       -4.4650189266
 H        -8.2728185709        0.9865017884       -4.2928498220
 H        -8.9656289166        1.8913582149       -2.9979356829
 H       -13.2272645962       -1.3849874538        0.5804478743
 H       -12.6346087138       -2.7858184785        1.4053852633
 H       -12.8962548255       -2.7826115409       -0.3915579832
 H       -11.0042362166       -1.0274931193        2.2707801915
 H       -10.0261333309        0.0428062680        1.1553736213
 H        -9.3737983999       -1.4938870783        1.5684412267
 H        -6.4687825917       -6.5287885270       -3.7428646983
 H        -7.9285095136       -6.2137070994       -2.7649049481
 H        -6.3043479273       -5.4629246450       -2.3001170675
 H        -5.4235657391       -3.2460131373       -3.5087661138
 H        -6.1081165186       -3.1926860151       -5.2064852839
 H        -5.0830064893       -4.4514788997       -4.7323800241
 H       -11.1314835047       -7.5845093789      -10.4194387635
 H       -11.3568023045       -6.1320109131       -9.3804222472
 H       -11.0389679190       -7.7714405163       -8.6304171618
 H        -7.5292872438       -7.1115014798      -10.4194895957
 H        -8.8484455513       -7.7355217341      -11.4373680656
 H        -8.2479810681       -8.6539552501      -10.0574531170
 H        -7.7254246355        0.9277288775      -10.9869679964
 H        -9.2752100483       -0.0723096646      -10.8701720972
 H        -8.1973571974       -0.2707299815      -12.1910501818
 H        -5.6725618460       -1.6877444831      -11.7224505049
 H        -7.3161088289       -1.7953721821      -12.6176051407
 H        -6.6896064834       -3.0817885233      -11.4843615326
 H        -3.8526525473        1.7283810566       -4.3600534544
 H        -4.7279173314        0.3717981551       -3.8277626737
 H        -5.4937785757        1.4684656630       -4.9532979893
 H        -3.1978398142        2.1612508300       -6.5925505608
 H        -4.4704922339        1.4949325479       -7.6266384296
 H        -2.8736154722        1.0067375942       -7.7705395680
 H        -0.1088907114       -4.0034226838       -4.9435460513
 H         0.4704314113       -4.9755845505       -6.3278776317
 H        -1.0958923764       -4.2068016187       -6.4239014785
 H         2.1257444275       -2.4859713580       -5.0327365542
 H         2.6227619668       -1.9901687411       -6.8088644731
 H         2.6612130002       -3.6491254804       -6.0639953311
 H         2.5233061250       -1.3354606454      -13.6177703663
 H         1.1718772428       -2.2815313544      -13.6875442013
 H         2.5920466101       -2.5282566754      -14.8510949180
 H         2.3326715947       -5.2442970201      -12.0223795787
 H         2.2355778924       -5.0522088510      -13.7961261960
 H         0.8902364330       -4.4671175038      -12.7070240757
 H         8.3934412757       -4.3594516973      -17.6260160687
 H         7.2797051787       -5.0280073983      -16.5574042623
 H         8.3373719197       -3.7802297395      -15.9728971029
 H         8.5273101454       -1.9067474815      -17.8617233706
 H         7.7123297292       -1.0532145228      -16.6176650102
 H         6.9033554209       -1.1043516231      -18.2171476248
 H         3.7967472654       -3.0191077437      -22.1474158354
 H         4.7541717218       -3.2169566456      -23.5905533293
 H         3.7730184113       -1.9124732378      -23.4790471598
 H         6.9822722378       -0.1549514955      -22.4603823622
 H         5.4519790061        0.1728573698      -23.4061373238
 H         6.5279695016       -1.0643869621      -23.9356504066
 H         3.5296211606        4.7619122972      -16.9188623195
 H         5.0341779958        3.8885246504      -17.4980825935
 H         3.8007484181        3.0126703131      -16.6687018174
 H         2.1600429893        5.0095036709      -18.5311048169
 H         1.3040819321        3.3617845773      -18.3764083673
 H         1.7469528922        4.0805764773      -19.9437641940
 Na       -8.3645730292       -1.8323098740       -6.2537515876
 Na        3.8196847373       -1.2246099822      -17.8651394428
