232

 C         4.5490275828        5.7574469101      -19.6869866995
 C         4.2905393190        4.3197507528      -19.8261813153
 O         4.5553386654        3.6239654902      -20.7996889370
 C         3.5423623627        3.5013592750      -18.7044406152
 C         3.5690985553        1.9176247027      -18.9008906181
 O         3.8837916530        1.2120246606      -17.9781753480
 C         3.0884780236        1.2862971120      -20.2504443729
 C         4.2930685281        0.8018283058      -21.0948727340
 C         4.4728579388       -0.7651163983      -20.9655385920
 O         3.7535154065       -1.4845299097      -20.3114707601
 C         5.4216538621       -1.4865420186      -22.0988319080
 C         6.4152898906       -2.2080969636      -21.1546146746
 O         7.1921213439       -1.5850339231      -20.4287626305
 C         6.1731365048       -3.7052127465      -20.9827107212
 C         6.8359395434       -4.1488253524      -19.6297348348
 C         5.9694709568       -3.3172651519      -18.5559851173
 O         4.7515660488       -3.2356419407      -18.6120520692
 C         6.8081639516       -2.9559153195      -17.1645236004
 C         5.8831024342       -2.6373702158      -15.9395568454
 O         4.9317899081       -1.8480349753      -15.9437386133
 C         6.3129583633       -3.0347282842      -14.5476062289
 C         5.3948333847       -2.6498140868      -13.3786215733
 C         4.3226051534       -3.7022561203      -13.2673915425
 O         4.5939117981       -4.8348300227      -13.6994840931
 C         2.8209747654       -3.3666203153      -12.8382426662
 C         2.8744193562       -2.6619042160      -11.4069195344
 O         3.3028603888       -1.5042142131      -11.2719751946
 C         2.1447840352       -3.3975076844      -10.2280253406
 C         1.5893307559       -2.4080729850       -9.1654024899
 C         0.7018285990       -3.2410101316       -8.2420242957
 O         0.1786301419       -4.2468954104       -8.6525621298
 C         0.7129285481       -2.8965253372       -6.6606609116
 C         0.0034690698       -1.5791107734       -6.3961469349
 O        -0.3943188589       -0.8485076746       -7.2811414377
 C        -0.2947921606       -1.0737003310       -4.9854472745
 C        -1.4353218076       -0.0498384578       -4.9124313544
 C        -2.7711924601       -0.6425936434       -5.4295202476
 O        -2.8487152558       -1.8779197812       -5.3428415231
 C        -3.9240323853        0.2196895706       -5.8402886939
 C        -4.9422817041       -0.8429898722       -6.4546202317
 O        -5.9336369562       -1.1227139384       -5.8025937443
 C        -4.5328720335       -1.5148932502       -7.7326958963
 C        -5.8019044978       -1.9505874345       -8.5389762903
 C        -6.3388660705       -0.8040955091       -9.4410169810
 O        -5.8035298143        0.3074065434       -9.4963103008
 C        -7.5323479530       -1.2711589120      -10.4545942750
 C        -8.5862933105       -2.1833981467       -9.8227113665
 O        -8.7690264592       -2.1657455100       -8.6094674512
 C        -9.6374717891       -2.9611722684      -10.6655953411
 C       -10.1225333316       -4.2163564607       -9.9285670553
 C        -8.9989762698       -5.2160835683       -9.9163872425
 O        -7.9739706322       -5.0055345829      -10.4720758712
 C        -9.2433754398       -6.6667541668       -9.3115276442
 C        -8.5921997289       -6.6359643738       -7.8690067987
 O        -7.3723982212       -6.8243639287       -7.8076890558
 C        -9.5972883177       -6.4704790730       -6.5845806081
 C        -8.6470514727       -6.1738033289       -5.3837475824
 C        -8.0004638663       -4.8324180999       -5.2521980995
 O        -8.0898604384       -3.9704083949       -6.1137452690
 C        -7.0912638975       -4.4738610226       -3.9601761169
 C        -7.9178072931       -3.2986475301       -3.0821282849
 O        -8.5393181006       -2.4774984614       -3.6932331017
 C        -7.8850091554       -3.4200681713       -1.6096244587
 C        -8.7204858079       -2.2918761612       -0.9052211099
 C       -10.1813539318       -2.7774121206       -0.5307061532
 O       -10.5092587341       -3.9382991657       -0.6274510764
 C       -11.1008986288       -1.6424221438        0.0815623824
 C       -11.2156018656       -0.5520471536       -1.0164230717
 O       -10.5131372430        0.4426487129       -1.0335979216
 C       -12.1240283177       -0.8669314612       -2.1735516333
 C       -12.0692526728        0.3238432154       -3.1007017615
 C       -11.0011291812        0.1530132529       -4.2167011166
 O       -10.6739310680       -0.9179455820       -4.6027955322
 C       -10.2939695849        1.4522997768       -4.8143095996
 C       -10.0694500213        1.1713242167       -6.3202344898
 O        -9.0064002022        0.5636958287       -6.6405391790
 C       -10.9693429776        1.5611346592       -7.6253877584
 C       -10.0234315909        2.1909137911       -8.5974088613
 C        -9.5670853546        3.5844265142       -8.1381540657
 O        -9.1619626306        3.7026654541       -7.0267898600
 C        -9.6816232652        4.7422026863       -9.0539274112
 C        -8.6480824686        4.4031066573      -10.2329859061
 O        -8.6104998650        3.2934445955      -10.7221090779
 C        -7.8735709900        5.4720705881      -10.8577858977
 C       -11.1465645864        4.6661624548       -9.5080040620
 C        -9.3436120225        6.0433948714       -8.3068319163
 C       -11.1678506757        2.7332603010       -4.6951270135
 C        -8.9723804666        1.7375635242       -4.1140521192
 C       -12.4531310865       -2.1898159221        0.5386273040
 C       -10.4680592826       -1.0475464981        1.3728768894
 C        -6.7911366258       -5.8065802970       -3.1422347133
 C        -5.7376892747       -3.8429408805       -4.4153304006
 C       -10.7566750294       -7.1514224650       -9.2618109591
 C        -8.4262692235       -7.5621189514      -10.2801408971
 C        -8.3065839368        0.0006587449      -11.0141296365
 C        -6.8059283048       -1.9398540728      -11.6034859715
 C        -4.5712298923        0.9762927974       -4.6500481565
 C        -3.5045326006        1.2359064402       -6.9516972579
 C        -0.0457834783       -4.0399755300       -5.9192769280
 C         2.1399845592       -2.9475849837       -6.1166793902
 C         2.1626504298       -2.3558123713      -13.8645505877
 C         1.9809535662       -4.6987818123      -12.9719017268
 C         7.6841942516       -4.1507730372      -16.7483112034
 C         7.6751847352       -1.6869407761      -17.4847736692
 C         4.5245867275       -2.4444039105      -22.8662833371
 C         6.0236415249       -0.5392639386      -23.1781659405
 C         3.8983135253        3.7670909612      -17.0768551791
 C         2.0561249674        3.9884804678      -18.9389998133
 H         5.1370173881        6.0466893698      -18.7316148684
 H         3.5744129774        6.2760746415      -19.5268188125
 H         5.1540554786        6.3378226200      -20.4357815191
 H         2.4826711700        1.9994259520      -20.7270440877
 H         2.6123607468        0.3245755233      -19.9320967636
 H         5.2151699186        1.2640662859      -20.7785565636
 H         4.2541091402        1.1374489091      -22.1216194078
 H         6.6385344524       -4.2289640439      -21.8044499597
 H         5.0499270144       -3.8573180899      -21.0048312624
 H         7.8029628564       -3.8608926809      -19.5412897764
 H         6.9419785577       -5.2353465229      -19.4540199695
 H         7.3933433900       -2.8181357372      -14.3700359784
 H         6.3882529763       -4.1136184322      -14.5301100612
 H         4.8573963518       -1.6986061240      -13.5832774198
 H         6.0066974620       -2.6547450248      -12.4481894656
 H         2.8199853398       -4.2064271498       -9.7888961389
 H         1.2419152267       -3.9558526299      -10.6007719482
 H         1.0052945788       -1.6845818136       -9.7272846574
 H         2.3487824610       -1.9487715447       -8.5983856536
 H         0.5846715689       -0.8039632629       -4.4307006882
 H        -0.7172147480       -1.9683370968       -4.4736629648
 H        -1.2480578656        0.8831196057       -5.3279915743
 H        -1.7324002002        0.1285433536       -3.8909993655
 H        -3.8386477703       -2.2783719696       -7.3649769218
 H        -3.9082477319       -0.8105783432       -8.2812439699
 H        -6.5297218438       -2.5005818540       -7.8782394487
 H        -5.3887159439       -2.7078210369       -9.2682325245
 H        -9.0665078467       -3.2100710295      -11.5945725684
 H       -10.5175941588       -2.3698501355      -10.9605728525
 H       -11.1082013863       -4.4187767803      -10.3121480672
 H       -10.3794241564       -3.9351955884       -8.9246285125
 H       -10.1051967123       -7.3449046021       -6.1925223131
 H       -10.4031921555       -5.7809331331       -6.7917623555
 H        -7.9125884862       -6.9598700605       -5.3828891327
 H        -9.2404913679       -6.4331565735       -4.5161301212
 H        -6.7565610158       -3.4512967389       -1.3839604477
 H        -8.2420356445       -4.3976677019       -1.2385710541
 H        -8.6488940805       -1.3418116885       -1.4361931625
 H        -8.1833944333       -1.9489444355       -0.0701109617
 H       -13.1516571818       -0.9179072349       -1.7814038553
 H       -11.7894085284       -1.7338094878       -2.7249359840
 H       -11.9176513739        1.3254887761       -2.6482598077
 H       -13.0803909382        0.3375078987       -3.6714042945
 H       -11.8473968211        2.0967770651       -7.4447610196
 H       -11.2784293245        0.6476402400       -8.0692235810
 H       -10.4615746947        2.1399350465       -9.5587330614
 H        -9.0855453710        1.5873142367       -8.5274465459
 H        -7.4789932983        5.0872424049      -11.7319526399
 H        -6.9207647271        5.6900136998      -10.3174001705
 H        -8.5126570274        6.3272922229      -10.9890370809
 H       -11.9112944390        4.8143439858       -8.7265841298
 H       -11.3249056513        3.8413278948      -10.1197002434
 H       -11.3783385667        5.5083706296      -10.1749431089
 H        -9.8964281357        6.1316531661       -7.3417790590
 H        -9.6198999418        6.8152702046       -9.0617297654
 H        -8.2837057531        6.0867284664       -8.1867673295
 H       -10.6748383768        3.5199869765       -5.2932931514
 H       -11.2609149343        3.1325113003       -3.7425653196
 H       -12.1121895954        2.7936017126       -5.0898807601
 H        -8.3120537412        2.3819664394       -4.6874455871
 H        -8.4431863686        0.7946435177       -3.8979828690
 H        -9.0820143558        2.1841760023       -3.1840702989
 H       -13.1777898757       -1.4406848526        0.8847412761
 H       -12.3019314785       -2.8529711312        1.4681639365
 H       -13.0096308856       -2.8153327252       -0.2639602846
 H       -11.1630535224       -1.2914222921        2.1752184545
 H       -10.3023232883        0.0138119968        1.3115233121
 H        -9.5359448255       -1.4729622804        1.5196800635
 H        -6.2853852216       -6.5657286504       -3.7668719431
 H        -7.7702104263       -6.1793488426       -2.7771208916
 H        -6.1831294886       -5.4513079045       -2.3535233194
 H        -5.1962365084       -3.5089516886       -3.5043426577
 H        -5.9241435834       -3.0271163474       -5.1200583911
 H        -5.1047502992       -4.4353888468       -4.9586476130
 H       -11.1407406667       -7.0385867315      -10.2807250730
 H       -11.3012459107       -6.4289889505       -8.6014167395
 H       -10.7999149356       -8.1655054133       -8.9507796336
 H        -7.3786811055       -7.1457459507      -10.2081154947
 H        -8.8107419101       -7.4275817314      -11.3082571879
 H        -8.4072737154       -8.6458424109      -10.0412118882
 H        -7.5453705901        0.7828123476      -10.9700343094
 H        -9.1332544022        0.1192915363      -10.3717818522
 H        -8.6049476280       -0.3334093568      -12.0129496782
 H        -6.0709931594       -1.2457017808      -12.0203892640
 H        -7.4680063252       -2.3205069794      -12.4155359141
 H        -6.1802754501       -2.8090277030      -11.2002745662
 H        -3.7990737507        1.5685092494       -4.1088751893
 H        -5.0127873374        0.2850264163       -3.8971045241
 H        -5.4037751310        1.6232844125       -4.9910454429
 H        -2.9987160103        2.1498759246       -6.5625006078
 H        -4.2950307922        1.4865774851       -7.6306062457
 H        -2.7814231978        0.8592955062       -7.5981632429
 H         0.0533920273       -3.9647691187       -4.7750653644
 H         0.5145212244       -4.8363364569       -6.2341306679
 H        -1.0463734472       -4.1523317584       -6.2375412497
 H         2.1657810705       -3.0433835997       -5.0691907135
 H         2.6420346569       -2.1297777811       -6.5176650690
 H         2.6547116412       -3.8335673509       -6.5747498228
 H         2.3004880035       -1.3609899567      -13.6820442560
 H         1.0926777678       -2.5344410080      -13.7675154515
 H         2.5938577435       -2.5966135888      -14.8359195561
 H         2.4861974019       -5.5353349040      -12.4611577073
 H         2.0258963493       -4.8959011535      -14.0590658346
 H         0.9814327940       -4.6233433395      -12.5770358991
 H         8.4626809793       -4.3154380151      -17.4700703576
 H         7.1353454219       -5.0575539561      -16.7684090014
 H         8.1370827982       -3.8721694219      -15.7558210902
 H         8.6254158055       -2.0128433308      -17.8929256987
 H         7.9362543700       -1.0102575548      -16.6314194611
 H         7.0995098227       -1.1431543368      -18.1647058577
 H         3.9417539249       -3.1063640154      -22.1700401059
 H         4.9952695856       -3.1056054622      -23.5637166573
 H         3.8138545443       -2.0368727417      -23.5150077527
 H         7.0008698117       -0.1822093355      -22.8165362930
 H         5.2585089273        0.1606939639      -23.4794708725
 H         6.1942932465       -1.1225555910      -24.1092180961
 H         3.6046155989        4.7332372631      -16.6956008097
 H         4.9560881701        3.5175065361      -16.9682191725
 H         3.3704834970        2.9923735830      -16.6248173074
 H         2.0692711211        5.0797213756      -18.7574449315
 H         1.4537814542        3.3887480917      -18.1366933329
 H         1.5570745982        3.7735697617      -19.8806530942
 Na       -8.3897398075       -1.7427721995       -6.1107492237
 Na        3.7655382030       -1.0459726303      -17.8083029230
