232

 C       -22.9118852086       -6.5896776904       -2.7605200742
 C       -21.5925780493       -6.0123719375       -3.1935534638
 O       -20.5645296425       -6.3467599863       -2.6136965375
 C       -21.5664051010       -4.8060132821       -4.3306253368
 C       -20.0695148649       -4.1047462143       -4.1106977218
 O       -19.6502840337       -3.9142610283       -2.9524390600
 C       -19.2979441218       -3.5513403389       -5.3608807295
 C       -18.1911806079       -2.5674952611       -4.9565366124
 C       -17.3435620938       -3.3117641273       -3.8313772375
 O       -17.1553314147       -4.4943409419       -3.8206836193
 C       -16.5769767233       -2.4104936910       -2.7475963628
 C       -16.1379345252       -3.4081393404       -1.6314585379
 O       -16.9717375378       -3.6494030232       -0.7407383698
 C       -14.8879846623       -4.2678285941       -1.7105040340
 C       -14.9138420160       -5.4883484606       -0.7271037601
 C       -15.1946391699       -6.7487764897       -1.5161536986
 O       -16.3421954093       -6.9569785251       -1.9350326551
 C       -14.0970216074       -7.8094641716       -1.9702421390
 C       -12.8075557420       -7.1334122165       -2.6955280760
 O       -12.8890307172       -6.2375674936       -3.4877885752
 C       -11.4208727766       -7.7398091824       -2.3314209008
 C       -11.2295113702       -9.1501523031       -2.9000123446
 C       -10.2006890999       -9.8128663141       -2.0074598455
 O       -10.4063743013       -9.9446896800       -0.8062152700
 C        -8.8876483843      -10.1744399113       -2.6476232335
 C        -8.2495891860       -8.9536773042       -3.5602883226
 O        -8.9482709551       -7.9840248715       -3.7072233640
 C        -6.7999743798       -9.0180720301       -4.1180187224
 C        -6.1840820974       -7.5620481618       -4.3205218152
 C        -6.1598392235       -7.2426735655       -5.8645256467
 O        -6.2904093211       -8.1955341888       -6.5876640624
 C        -5.7099126252       -5.7941853450       -6.4791159445
 C        -4.4181460268       -6.1497198345       -7.2223945229
 O        -3.3667119060       -6.2111494391       -6.6085117154
 C        -4.4692442628       -6.4222995483       -8.6964737304
 C        -4.4198882106       -5.1388514022       -9.5279208087
 C        -4.4886751294       -5.3257999407      -11.0861684983
 O        -3.9993200815       -6.2381328449      -11.7101577865
 C        -5.1684643276       -4.1198272413      -11.8713330747
 C        -4.2759817678       -2.7399648824      -11.5606494655
 O        -4.1641066418       -2.3200005237      -10.4309385474
 C        -3.3914784667       -2.1577319338      -12.7507586928
 C        -2.3144525464       -1.2541547329      -12.0818100891
 C        -0.8549833405       -1.5052170596      -12.7214267229
 O        -0.4981188779       -0.7028242819      -13.5358046191
 C         0.0292615622       -2.7458425437      -12.2927793520
 C         1.5852748100       -2.3670608716      -12.3689836289
 O         2.3931312883       -2.9575960236      -13.0532336379
 C         2.0484104115       -1.0065950597      -11.6015515830
 C         3.6066222269       -0.7454825328      -11.8447242968
 C         3.9289082432        0.5524339210      -11.1367911134
 O         3.3168246997        0.9685335833      -10.1651833692
 C         5.4010046101        1.1747006554      -11.3672447468
 C         5.0698000715        2.4369271703      -12.3397514874
 O         5.3084983458        2.2503627378      -13.5245656026
 C         4.2287179339        3.6038089888      -11.8237817183
 C         5.0210028756        4.8868377343      -11.5924508533
 C         5.5911826761        5.4577566265      -12.8515773146
 O         5.1063777931        5.0982326192      -13.8886038356
 C         6.7001223196        6.6006982893      -12.7842328798
 C         7.4898892948        7.3098806836      -14.0568662103
 O         7.1818760753        8.3949456083      -14.4612964421
 C         8.6194029832        6.4203410901      -14.8161169575
 C         8.5414401751        6.7212274709      -16.3075471852
 C         7.1886988975        6.3605090310      -16.9568476059
 O         6.4201506161        5.6306710959      -16.4125513580
 C         6.8011614040        7.1184106271      -18.3089744942
 C         8.0123064892        6.8886367349      -19.3255588197
 O         8.9783370570        7.5748488515      -19.3330589627
 C         7.8630780640        5.6384193885      -20.2281703564
 C         9.2309540531        5.0833804559      -20.7037100244
 C         9.6854323897        3.9986484419      -19.8363226304
 O         9.8693780488        4.2534384975      -18.6239127509
 C         9.9572446405        2.5100967588      -20.2288464642
 C         9.1726674858        1.7743431121      -19.2762795889
 O         8.0104362712        1.5589197647      -19.5279745725
 C         9.6296479110        1.2720844548      -17.8435186741
 C         8.5428450215        0.3053227245      -17.2469449939
 C         7.3219655784        0.9106996279      -16.7866418600
 O         7.2811130889        1.6636400042      -15.8243821684
 C         5.8861306547        0.4954074809      -17.3674564357
 C         5.2777640660        1.8383177409      -18.0841330849
 O         5.0115941430        2.8640912242      -17.4662056908
 C         4.9993746499        1.5870930047      -19.5502038795
 C         5.9053830757       -0.7524714121      -18.2962456509
 C         4.9972542148        0.2119623525      -16.0392501360
 C         9.3517591586        2.2480453904      -21.7553177636
 C        11.4624514986        2.2043458147      -20.1190359062
 C         5.4453281683        6.4712496599      -18.7924327917
 C         6.6407627786        8.6024045665      -17.9875598875
 C         6.1811565200        7.8020911697      -11.9994266788
 C         7.9146205415        6.0174786924      -11.9143662049
 C         5.9458816587        1.7734533564      -10.1292366646
 C         6.4621035562        0.2444015796      -11.9286218314
 C        -0.3169746342       -3.1217358639      -10.9178365765
 C        -0.2029331154       -4.0373518499      -13.1835128413
 C        -5.2058878635       -4.4975941981      -13.3914803878
 C        -6.5834474150       -4.1380995008      -11.2929870012
 C        -6.8958971904       -5.3815541545       -7.3406665614
 C        -5.3923004108       -4.5578120312       -5.4467943577
 C        -7.8827518963      -10.5060540200       -1.5541421793
 C        -9.1835456977      -11.3458434453       -3.6420622963
 C       -13.6566427503       -8.4441759194       -0.5761397207
 C       -14.7151865212       -8.7877297006       -2.9935402156
 C       -15.4488370848       -1.7737273974       -3.5359635900
 C       -17.5031965200       -1.3349366904       -2.0766062506
 C       -21.7734562564       -5.5237515491       -5.6791294097
 C       -22.6190983768       -3.7553154949       -3.8729199290
 H       -23.4591837401       -5.8570767409       -2.2337772086
 H       -22.6091941801       -7.4128324718       -2.0674717135
 H       -23.4565497856       -6.8528968423       -3.6469133504
 H       -20.0048225783       -2.9494570602       -5.9154107268
 H       -18.8441966500       -4.3683534868       -5.9109840817
 H       -18.4676395434       -1.6194853333       -4.5697007825
 H       -17.6351339541       -2.3205504870       -5.8641443873
 H       -13.9843865260       -3.6431573198       -1.4225545060
 H       -14.7992257220       -4.5971784364       -2.7056404265
 H       -15.8329788792       -5.3449178106       -0.0496644101
 H       -14.0156611967       -5.5135194409       -0.2071915196
 H       -11.1940751031       -7.8643601445       -1.3073346452
 H       -10.6758669400       -7.1152861729       -2.7503030366
 H       -10.9165018537       -9.0432456502       -3.9120384361
 H       -12.2324997259       -9.5877155620       -2.8412561324
 H        -6.7657475649       -9.6364635712       -5.0509930769
 H        -6.0352204278       -9.5115829352       -3.4220824545
 H        -5.2101505125       -7.6782727765       -3.9275871799
 H        -6.6759575608       -6.7707820742       -3.6653433419
 H        -5.3881823584       -6.9016483162       -9.1024325796
 H        -3.5391347468       -7.0845329968       -8.9546654825
 H        -3.4600172071       -4.6517871803       -9.3195390262
 H        -5.1726900105       -4.4307071427       -9.0930154891
 H        -4.1499010906       -1.4909320596      -13.3192555277
 H        -3.0727455212       -2.9763272900      -13.3209487333
 H        -2.2986929739       -1.4090939233      -10.9494181768
 H        -2.7400302223       -0.2325120084      -12.2624191982
 H         1.8075783685       -0.9719852346      -10.5304999680
 H         1.3854077020       -0.3048558814      -12.1336293072
 H         3.7912274353       -0.5639919144      -12.8784021828
 H         4.2568164856       -1.5492800540      -11.4909972755
 H         3.5946377247        3.3645841462      -10.9030455771
 H         3.3784950878        3.8967562880      -12.5474492670
 H         5.8085286667        4.5624088066      -10.8994712733
 H         4.4835777918        5.7178795080      -11.0715688310
 H         8.4836998116        5.3382079733      -14.5857777361
 H         9.5858280768        6.6489185580      -14.4961048005
 H         9.2246363988        6.1090182162      -16.9944821771
 H         8.7190086714        7.8257473782      -16.5128712589
 H         7.2053467545        5.9697837275      -21.0474445535
 H         7.2383770879        4.8813903851      -19.7402673371
 H         9.7504449544        6.0495921770      -20.6701461255
 H         9.1777568321        4.8147958513      -21.7134942416
 H         9.6415555431        2.1350627771      -17.1719439436
 H        10.6351969304        0.9652970413      -17.7266643189
 H         9.0248389286       -0.0592148214      -16.2725666264
 H         8.5498906643       -0.5029310006      -17.9797735042
 H         5.6053310571        0.8153306609      -20.0409996783
 H         4.8993473733        2.5088872759      -20.2799129572
 H         3.9960392293        1.2115400198      -19.3513488251
 H         4.8531196476       -0.7032375285      -18.6349131899
 H         6.0679428889       -1.6397820264      -17.7756990019
 H         6.4703105908       -0.6510926743      -19.2049985871
 H         3.9775342579       -0.0171870545      -16.2213762250
 H         5.0624175380        1.0333550352      -15.3203301134
 H         5.6689091354       -0.4971202943      -15.5838116267
 H         9.7720502084        1.3483465078      -22.1636411252
 H         9.5312237238        3.0973091142      -22.4865984007
 H         8.2586487653        2.1697146705      -21.6003138475
 H        11.7256857648        1.1296902720      -20.1538644141
 H        11.9102581666        2.6448726795      -19.2503537464
 H        11.9092280423        2.7132626994      -20.9654889888
 H         4.5590016280        6.5155304024      -18.1949489991
 H         5.7054652628        5.4598592524      -18.9567115793
 H         5.1446590043        6.9190164746      -19.7352674301
 H         7.6474343006        9.1005362558      -18.0974378785
 H         6.4727911589        8.8833035650      -17.0134443676
 H         6.0386763641        9.0855974760      -18.7224297897
 H         6.9165279568        8.4936799997      -11.6522368704
 H         5.4493103291        7.4988439644      -11.1760328867
 H         5.6223848149        8.3983338572      -12.7447345916
 H         7.5754899859        5.6974423907      -10.9512778331
 H         8.6962377506        6.7765985826      -11.7180257629
 H         8.4270886587        5.2501061564      -12.4545231584
 H         6.9956334198        2.1719348766      -10.1760403731
 H         5.9596380793        1.1298165570       -9.2559657573
 H         5.3073059925        2.6283641565       -9.8509678458
 H         6.4649453737       -0.6032094306      -11.3046386596
 H         7.3729231470        0.7895346910      -11.8101659633
 H         6.2068041000       -0.1521721570      -12.9037146540
 H        -0.2947689790       -2.2345551996      -10.2259089334
 H         0.3307411734       -3.7977412756      -10.4397171560
 H        -1.3197698069       -3.5108071744      -10.8055024123
 H        -1.1381028004       -4.5825272283      -13.0051842243
 H         0.5925020815       -4.7736117855      -13.0064913102
 H        -0.2021372414       -3.7899707636      -14.2015805075
 H        -4.8378360125       -3.7354832378      -14.1111253522
 H        -6.2506273938       -4.8208139895      -13.5318412860
 H        -4.6343109543       -5.4301690348      -13.5332709579
 H        -7.3909997700       -3.6931244793      -11.8669871821
 H        -6.7591800239       -3.8089058161      -10.2467661675
 H        -6.8748936696       -5.2278686669      -11.2900911245
 H        -7.3560335334       -6.1406058075       -7.9674036532
 H        -6.5333811912       -4.5380377762       -8.0387430992
 H        -7.7919555494       -5.0312470246       -6.8001012707
 H        -6.2571512438       -4.2763135489       -4.8801802185
 H        -4.9354209623       -3.6443659092       -5.8998949404
 H        -4.6447293591       -4.8855673290       -4.7373794996
 H        -8.4195744302      -11.0160728616       -0.6874915849
 H        -7.5313689244       -9.5478190703       -1.2029438095
 H        -7.0971651414      -11.0861142861       -1.9539921253
 H        -9.7509959585      -12.0593903744       -3.0886719177
 H        -8.2503018897      -11.7907494698       -4.0987067917
 H        -9.8587327013      -11.0021371639       -4.4469838998
 H       -12.6987620504       -8.0672204238       -0.1977870886
 H       -13.4198876706       -9.4506567180       -0.6720898749
 H       -14.4244702130       -8.3976521334        0.2578886776
 H       -15.1289782038       -8.1408489153       -3.7253227127
 H       -15.4597816553       -9.3652777212       -2.5558242108
 H       -13.9153301801       -9.3777884813       -3.3767408413
 H       -14.7545323228       -2.3980627918       -3.9761459322
 H       -14.9322924478       -0.9855206815       -2.9962859656
 H       -15.8553407086       -1.1750482175       -4.3580102652
 H       -18.3555153858       -1.7749167688       -1.7016851125
 H       -17.5807389125       -0.4393939760       -2.6926787858
 H       -16.8565444915       -0.8778000809       -1.2137982024
 H       -20.9208455915       -6.1696148090       -5.8430579491
 H       -21.7473078725       -4.7578082084       -6.4892763336
 H       -22.7460461325       -6.0108290026       -5.6906153627
 H       -22.5338232705       -2.9202082007       -4.4895418041
 H       -22.3932568573       -3.4662339211       -2.8468858950
 H       -23.6406080353       -4.1840440708       -4.0407389804
 Na      -18.2986982022       -5.5702514599       -1.8458898645
 Na        5.4170542033        3.5532587512      -15.2869002564
