232

 C         4.1084226239        6.1630106271      -19.6095266241
 C         3.9521927491        4.6029666714      -19.8476295267
 O         4.2861999207        4.1390675639      -20.8997661423
 C         3.2763047950        3.6354151902      -18.6584663510
 C         3.4030570323        2.1539152791      -19.1610401602
 O         4.0720993628        1.3660239927      -18.4475343941
 C         2.9160965062        1.6771236646      -20.5388225647
 C         4.0730051973        1.0017949936      -21.2030194638
 C         4.3388146144       -0.5797476961      -21.1505290126
 O         3.5804395118       -1.2564547917      -20.4510708447
 C         5.3132844420       -1.3531043153      -22.1511450959
 C         6.3171903982       -2.2622486211      -21.2377264361
 O         7.2971301301       -1.7195847518      -20.7897389184
 C         5.7732556467       -3.6277959622      -20.7687183794
 C         6.6707453522       -4.0693073212      -19.5702666872
 C         6.1614698935       -3.3728431582      -18.2861646108
 O         4.9555030903       -3.0729046106      -18.2611715374
 C         7.0527658035       -2.9271915554      -17.0754494085
 C         6.1936948901       -2.3060333600      -15.9074221754
 O         5.3538684729       -1.4547972924      -16.0311907397
 C         6.5072964092       -2.6926374281      -14.4144633752
 C         5.3326892072       -2.3695143363      -13.5002983887
 C         4.3599029970       -3.6611253826      -13.4501579197
 O         4.8790589036       -4.7170434632      -13.6744409053
 C         2.8115066123       -3.6396888440      -13.1407897004
 C         2.6769228952       -3.0912050067      -11.6931754243
 O         3.2854880175       -2.0984896275      -11.4194745212
 C         1.9107483892       -3.7286486922      -10.6022777454
 C         2.0518826742       -2.9987530137       -9.2305766984
 C         0.9921020738       -3.7033326320       -8.2003605903
 O         0.2242826054       -4.5340008421       -8.5915574887
 C         0.8393670807       -3.1739390822       -6.7248594820
 C         0.0803708500       -1.7847904977       -6.7118130429
 O        -0.3615200102       -1.2584074168       -7.7167999835
 C        -0.0793684161       -1.2420334298       -5.3254154664
 C        -1.2322691363       -0.3104211713       -5.1546031068
 C        -2.5128573203       -0.9927618732       -5.5560400487
 O        -2.6343826256       -2.1549345752       -5.2430389169
 C        -3.7867658462       -0.1072038409       -5.9176282340
 C        -4.9634198070       -0.9029197970       -6.7312104831
 O        -6.0855538902       -0.5000731777       -6.5025269252
 C        -4.5503225437       -1.9216152113       -7.9112387384
 C        -5.7081726389       -2.3074900807       -8.8594268940
 C        -6.4587084996       -1.1007528701       -9.4119170572
 O        -6.0029636489        0.0140136978       -9.4667099534
 C        -7.7107576781       -1.4278860018      -10.3029788461
 C        -8.7814442461       -2.0027484616       -9.3365150629
 O        -8.7088070247       -1.9693723907       -8.1313398370
 C       -10.0433284883       -2.7924332959       -9.9455649335
 C        -9.9971433922       -4.1605674195       -9.3181750024
 C        -8.9115193222       -5.2442473614       -9.4100885174
 O        -7.7968825349       -4.8839437486       -9.7535176783
 C        -9.0937888910       -6.7375820890       -8.8585444525
 C        -8.6259484631       -6.6804549959       -7.3013699725
 O        -7.4723825804       -6.5443855705       -7.0227053366
 C        -9.5765792071       -6.3198461585       -6.1740504859
 C        -8.9107470561       -5.9314808805       -4.8072669834
 C        -8.0266937725       -4.6706178736       -5.0270221691
 O        -8.3760263842       -3.9116086731       -5.8994476940
 C        -6.8485075121       -4.3661359410       -4.0503552345
 C        -7.4098279259       -3.1359686181       -3.1117196136
 O        -7.3052621528       -1.9539840033       -3.5164812939
 C        -7.8797249354       -3.4001193062       -1.6831597572
 C        -8.8519274012       -2.2408255970       -1.1408817918
 C       -10.0816820497       -2.8154471708       -0.4996929881
 O       -10.4093082606       -3.9963063307       -0.4707094112
 C       -11.1651840844       -1.7240360475       -0.0159619251
 C       -11.3944286462       -0.6677885296       -1.1849304009
 O       -10.7596894698        0.3577733931       -1.1616176052
 C       -12.3877768212       -0.9329734093       -2.4379097653
 C       -12.2369460192        0.1734515474       -3.5184090496
 C       -10.9493954616        0.1209735231       -4.4243455282
 O       -10.4811791262       -0.9794688663       -4.6686700704
 C       -10.1922303380        1.4271107587       -4.9712451867
 C        -9.8834536090        1.2526875246       -6.4409981288
 O        -8.9761207984        0.5494849174       -6.7911959586
 C       -11.2075158494        1.4198751548       -7.3843862347
 C       -10.9565426339        2.3082335822       -8.5934742333
 C        -9.9907301377        3.5370373290       -8.2212114736
 O        -9.1520620119        3.2974153344       -7.3474523695
 C        -9.9973616185        4.8874703606       -8.9179961877
 C        -9.0677366818        4.7874015082      -10.3240806119
 O        -9.1541538626        3.8270926484      -11.0894086045
 C        -8.2823833146        6.0687228319      -10.8318120902
 C       -11.3697995140        5.3062037867       -9.4053875576
 C        -9.4392065064        6.0271428629       -8.0407385414
 C       -11.1413505603        2.5930791728       -4.5645561628
 C        -8.8855290216        1.4521803865       -4.1323822652
 C       -12.5556019531       -2.3021520834        0.2541726206
 C       -10.5327615749       -1.0862218945        1.2223774061
 C        -6.4597072683       -5.5969046790       -3.1147329602
 C        -5.5654443314       -3.9211877451       -4.7067101787
 C       -10.5134453162       -7.4147149670       -8.9754776952
 C        -7.9825259062       -7.5683431460       -9.5797536105
 C        -8.3580767503       -0.0439649417      -10.8772248951
 C        -7.2418987888       -2.3630591323      -11.4010381129
 C        -4.2220462754        0.2991830088       -4.4370405666
 C        -3.3617452432        1.0409795595       -6.8349736204
 C        -0.1233391220       -4.1650370714       -5.9096271407
 C         2.1972406600       -3.1811047035       -6.0790150605
 C         2.1157182879       -2.5865555995      -14.1563768153
 C         2.1762103281       -5.0072385801      -13.3583048415
 C         7.7549156098       -4.2548788553      -16.5928782964
 C         8.2091722541       -2.0120591954      -17.6359730701
 C         4.3121595530       -2.0317928874      -23.0967946771
 C         6.1489685010       -0.3423222497      -23.0939847712
 C         3.8520682972        3.6779739838      -17.2958437121
 C         1.7427531651        3.9872083511      -18.6835624832
 H         5.1734368239        6.4608114483      -19.8042003004
 H         3.9309478942        6.6625736701      -18.6195713758
 H         3.5700099381        6.9204043539      -20.2565722634
 H         2.5084879346        2.5384863104      -21.1407188571
 H         2.0732817682        1.0655983102      -20.2507147210
 H         4.9555039379        1.6496929880      -21.0597870625
 H         3.8824466128        1.1677704559      -22.2396654829
 H         5.7227127554       -4.3698613568      -21.5878636836
 H         4.7864531406       -3.4961256069      -20.3147338331
 H         7.8479919558       -4.0560097310      -19.7772125605
 H         6.5438953557       -5.0659033371      -19.2385860676
 H         7.2307642850       -1.9256353814      -14.1539321647
 H         7.0220930293       -3.6676516937      -14.2547396300
 H         4.8562041164       -1.4580090668      -13.9006955522
 H         5.8798506833       -2.2910901797      -12.5322894031
 H         2.2523568186       -4.8219071145      -10.5152168740
 H         0.8189094265       -3.8505067049      -10.7839519518
 H         1.8370514907       -1.9571277132       -9.2916195390
 H         3.0134276998       -3.1257594687       -8.7523048742
 H         0.7775673849       -0.5269638711       -5.2135745890
 H        -0.0881119885       -1.9251955615       -4.5325311146
 H        -1.1167934077        0.6278057849       -5.7114063220
 H        -1.2697915544        0.0723001472       -4.1999830990
 H        -4.1065747568       -2.6706023770       -7.2560036359
 H        -3.6446768301       -1.5645978415       -8.4030831227
 H        -6.4064869288       -3.0176676705       -8.4283955459
 H        -5.1854114949       -2.9506378280       -9.5901227687
 H       -10.0058155807       -2.8424187299      -11.0100484303
 H       -10.8445394225       -2.2498127968       -9.4784366413
 H       -10.9746107904       -4.6012959039       -9.6311023454
 H       -10.1716501792       -4.0059737885       -8.2844262368
 H       -10.3133500340       -7.0937866920       -6.0736619071
 H       -10.0795616317       -5.3695924858       -6.4018901945
 H        -8.2584114968       -6.7255185057       -4.5774844737
 H        -9.5504349294       -5.7265616880       -3.9410421376
 H        -7.0588630377       -3.3652670042       -1.0566606000
 H        -8.3408515758       -4.4701565645       -1.6257692835
 H        -9.0674771349       -1.4704080467       -1.8710420944
 H        -8.2829882447       -1.6037399184       -0.4900892719
 H       -13.4349102773       -0.9268860696       -2.1642764124
 H       -12.0592667823       -1.9019856843       -2.8288066361
 H       -12.2290192404        1.2261413348       -3.0092063267
 H       -13.1043958350        0.2511688722       -4.2448723126
 H       -12.0006657896        1.8111925647       -6.8162907089
 H       -11.5291940565        0.4960980014       -7.7123994503
 H       -11.9216707381        2.6888742221       -8.9648133274
 H       -10.5526927512        1.6416250275       -9.3194319595
 H        -7.9529525605        5.6334377773      -11.8181690785
 H        -7.3957135287        6.2660214621      -10.3084944796
 H        -8.8471316016        6.9740722768      -10.8609481637
 H       -12.1455172906        5.4818625379       -8.6763508143
 H       -11.8112654894        4.6778279727      -10.2399084040
 H       -11.2736211601        6.2406141812       -9.8707020930
 H        -8.6103339265        5.6330639018       -7.4396929345
 H       -10.2127424073        6.3115669709       -7.3250226121
 H        -8.9781463613        6.8139325912       -8.6813924155
 H       -10.8231318943        3.4904354614       -4.9220044424
 H       -11.1910033504        2.8021206626       -3.5152984006
 H       -12.1512379965        2.5636239493       -4.8499233781
 H        -8.5035772702        2.4433854992       -3.9584649089
 H        -8.1040653834        0.8236419467       -4.4208866917
 H        -9.2056100178        1.1346545252       -3.1235840237
 H       -13.2578037493       -1.3966792056        0.3676326588
 H       -12.7252361840       -2.8919779196        1.1959180423
 H       -13.0080649400       -2.9866883749       -0.4743975577
 H       -10.9608620442       -1.4703609675        2.1079502898
 H       -10.8008706638       -0.0479039780        1.1327567959
 H        -9.4255230054       -1.2523132612        1.2507786514
 H        -6.1072829411       -6.2772068754       -3.8932360136
 H        -7.2833717523       -5.9297470321       -2.5414124352
 H        -5.5691477170       -5.3244368228       -2.5349004228
 H        -4.8534175782       -3.4878661890       -4.0584147846
 H        -5.6960225160       -3.2534033597       -5.5220956824
 H        -5.1562441871       -4.8841729697       -5.1595111884
 H       -10.4357659157       -8.2615620224       -9.6612324715
 H       -11.3238823516       -6.8038161422       -9.3643215212
 H       -10.8290441476       -7.7265268213       -7.9760228986
 H        -7.0155905545       -7.1030772985       -9.6619625196
 H        -8.3429327377       -7.8276067731      -10.5847386926
 H        -7.8539042574       -8.4774329768       -8.9739642896
 H        -7.7013661721        0.1566278864      -11.6767514804
 H        -8.5992523648        0.7391992201      -10.1554332053
 H        -9.2065220032       -0.5554342386      -11.3047761800
 H        -8.0561654523       -3.1044185429      -11.6716247692
 H        -6.3637086281       -2.9100901386      -11.1170207028
 H        -6.7802081688       -1.8206389818      -12.2268827481
 H        -3.5926520608        1.0968336930       -4.0431269054
 H        -4.2875483510       -0.5688879102       -3.8193600641
 H        -5.1922866726        0.7808284460       -4.4679485622
 H        -2.9557243169        1.8535774083       -6.3312340494
 H        -4.1270505203        1.5341284130       -7.3901777992
 H        -2.6014676374        0.7102361504       -7.5629000841
 H         0.0091884338       -4.0491811758       -4.9076882761
 H         0.3033897195       -5.1978890024       -6.1146116803
 H        -1.1941065666       -4.1213755412       -6.1320380993
 H         2.1890530960       -2.4968991020       -5.2960788625
 H         3.0030893257       -2.7696084601       -6.7363151341
 H         2.5167530748       -4.1161487228       -5.8706823842
 H         2.6760766317       -1.6240894782      -14.0306334928
 H         1.0805116691       -2.4808571945      -14.0473795852
 H         2.1531395427       -2.9917169793      -15.1388967848
 H         2.5536622921       -5.5896334977      -12.5325174772
 H         2.5925285494       -5.5249739877      -14.2172057359
 H         1.0789930898       -4.8412028662      -13.4215784253
 H         8.3205787127       -4.7111534581      -17.4021562346
 H         6.9122404416       -4.9144600910      -16.2590433123
 H         8.4962681029       -4.0966242906      -15.8691089002
 H         8.3427518958       -2.1281982024      -18.7162818241
 H         9.0260317963       -2.2761547026      -17.0672131915
 H         8.0528484663       -0.9249644313      -17.4117400097
 H         3.6238960093       -2.7037315395      -22.7152477482
 H         4.6938820067       -2.4260995570      -24.0024480862
 H         3.5063846688       -1.2891339044      -23.3738104752
 H         6.8569941750        0.2831234380      -22.5326106605
 H         5.3274884968        0.3704332282      -23.4400502736
 H         6.5295272600       -0.9001027483      -23.9125485731
 H         4.8346225243        3.3259055840      -17.3338060115
 H         3.2384027197        3.1133546984      -16.6262360273
 H         3.7455574119        4.7403255700      -17.0934146875
 H         1.5128597578        4.9370621713      -18.1119664061
 H         1.1229831008        3.3409397653      -18.1140157485
 H         1.4920623177        3.8867393239      -19.7731236277
 Na       -8.1219865632       -1.5649779481       -6.0611664849
 Na        4.0582325780       -0.8087686529      -18.0251530465
