232

 C         3.8719132635        6.0606693182      -19.4467225238
 C         3.9072368231        4.5978214746      -19.8015966410
 O         4.2772506222        4.2449347679      -20.9364058205
 C         3.2779839020        3.6761884895      -18.7881525371
 C         3.4489221968        2.1659435646      -19.2564165078
 O         4.0573193780        1.3741497733      -18.4680169813
 C         3.0030198275        1.5530790531      -20.5634334396
 C         4.1576650172        0.9869118001      -21.3974030359
 C         4.2419713791       -0.5430867289      -21.1848502008
 O         3.5615301314       -1.0978985385      -20.3223957986
 C         5.1531147901       -1.2409669802      -22.1442492883
 C         6.1883719872       -2.0916754122      -21.3143675027
 O         7.2716473391       -1.7216160831      -20.9001284675
 C         5.7594265979       -3.5249146662      -20.7929713098
 C         6.5659858463       -3.9619669469      -19.5295276591
 C         6.0456363487       -3.2940525835      -18.2825433744
 O         4.8758776569       -3.0818251921      -18.0298549797
 C         7.0663629472       -2.9640611245      -17.0492213139
 C         6.2472614728       -2.2141950114      -15.9233175572
 O         5.4896599354       -1.3182669653      -16.3095522227
 C         6.4224326620       -2.6147592691      -14.4453493269
 C         5.2413531729       -2.4071760599      -13.4855760610
 C         4.4468652298       -3.6743495140      -13.5533618228
 O         4.9089908742       -4.7630212465      -13.7288670401
 C         2.8895924545       -3.6678363410      -13.1337654630
 C         2.7138566841       -3.1076578052      -11.6694777592
 O         3.3144195868       -2.0400185704      -11.4805722637
 C         1.7947355777       -3.8464205377      -10.6096747001
 C         1.9731586544       -3.1775223615       -9.2306768874
 C         0.8889493141       -3.7215235336       -8.2341850009
 O         0.2534203183       -4.6640689848       -8.6639474806
 C         0.9194374823       -3.2771941237       -6.7799781876
 C         0.1811515038       -1.8500249714       -6.7114208982
 O        -0.3015529654       -1.4259537846       -7.7150809125
 C         0.0151250170       -1.2323150458       -5.2793409785
 C        -1.1632017464       -0.2014969418       -5.2775012228
 C        -2.5228958120       -1.0578490178       -5.5729664064
 O        -2.5618785381       -2.2256489136       -5.3049746795
 C        -3.7545344969       -0.1787648306       -6.0138486163
 C        -4.9829224082       -0.8762302228       -6.7781919783
 O        -6.1511098720       -0.5311874697       -6.6195102423
 C        -4.5899012045       -1.9242437152       -7.7624359846
 C        -5.6754358069       -2.2482996199       -8.7371249830
 C        -6.4091149458       -1.0915841991       -9.4422100618
 O        -5.9014462801        0.0183806862       -9.4822500590
 C        -7.7089017467       -1.5223957081      -10.3181084062
 C        -8.7854043563       -2.1391640292       -9.3240285112
 O        -8.7443654485       -1.9475793006       -8.0803907993
 C       -10.1341838326       -2.9383009299       -9.8033625082
 C       -10.2317449042       -4.2852557843       -9.0043165383
 C        -8.9571067258       -5.2209913221       -9.2426219064
 O        -7.8572479833       -4.8202519809       -9.6102155587
 C        -9.0136331953       -6.7502248189       -8.7098761407
 C        -8.5743699779       -6.4803774413       -7.2624814431
 O        -7.4124783333       -6.5433028944       -7.0136105807
 C        -9.6941481374       -6.2515545489       -6.1110088819
 C        -8.9697286647       -5.9759165066       -4.7879183328
 C        -8.0541704005       -4.6796844742       -4.9102242848
 O        -8.3917574571       -3.9162518912       -5.7805491258
 C        -6.7937684115       -4.3026835062       -4.0262266980
 C        -7.1828161382       -3.0794946106       -3.0824370750
 O        -7.0995128108       -1.9530054275       -3.5077900507
 C        -7.8155654018       -3.3975695500       -1.6253468954
 C        -8.7739012298       -2.3073333873       -1.1741169770
 C       -10.1908738735       -2.8133329438       -0.6623874307
 O       -10.4030673880       -3.9754476700       -0.4652515872
 C       -11.2732666667       -1.6650677714       -0.1367011791
 C       -11.4044502530       -0.6657583429       -1.3052110184
 O       -10.8235886865        0.4064297898       -1.1729210063
 C       -12.2587658690       -0.9588522286       -2.4867659282
 C       -12.1433425602        0.0829806097       -3.4861309259
 C       -10.8649998468        0.0277207889       -4.3265430145
 O       -10.3064902051       -1.0335093964       -4.6909980924
 C       -10.2527318526        1.3420738515       -4.8175837076
 C       -10.0493044882        1.1541337039       -6.4095467484
 O        -9.0507167010        0.6299666712       -6.7663638909
 C       -11.2379797107        1.4542630243       -7.4751618672
 C       -11.0521586184        2.5164644026       -8.6551905280
 C       -10.0742225943        3.5798462341       -8.2426607196
 O        -9.3226646922        3.2797143316       -7.3432493867
 C        -9.9956820279        5.0365170675       -9.0815791998
 C        -9.1683937907        4.8120706251      -10.4241356256
 O        -9.2756559954        3.8427452184      -11.0671842117
 C        -8.4159870600        6.0866715680      -10.7423278470
 C       -11.4053105914        5.4375266569       -9.3670395215
 C        -9.4401771469        6.0569526315       -7.9604379974
 C       -11.0860184225        2.6548882226       -4.5559453745
 C        -8.8330454008        1.3261211402       -4.1868147383
 C       -12.5880047306       -2.3649566471        0.2310938196
 C       -10.6526484790       -0.9649214550        1.0866848653
 C        -6.5211952165       -5.5411140482       -3.0906564439
 C        -5.5899596418       -3.8239611585       -4.8927341894
 C       -10.3568414016       -7.4359358523       -8.9140293830
 C        -7.9572776376       -7.5711504405       -9.4849613113
 C        -8.3668167458       -0.2037040916      -10.8692816582
 C        -7.1526441026       -2.3272897850      -11.3888432064
 C        -4.2276745834        0.2000644946       -4.6197923768
 C        -3.3992820909        1.0505954262       -6.8464987679
 C        -0.0424884803       -4.2381944303       -6.0727334371
 C         2.3269949647       -3.2611410703       -6.1918344698
 C         2.1714420929       -2.5752393516      -14.0440761310
 C         2.3036535112       -5.0831629292      -13.4191727382
 C         7.7043372823       -4.3478340525      -16.6508553715
 C         8.1765337189       -1.9832813688      -17.5286932000
 C         4.4160145178       -2.1625935793      -23.1184318464
 C         6.1117088575       -0.2610026792      -22.8919732065
 C         3.8980013259        3.8236925453      -17.2938135801
 C         1.7418211710        4.1400204587      -18.7609929413
 H         4.7585149922        6.6690411070      -19.5706121167
 H         3.5123263821        6.3492556576      -18.5078019921
 H         3.1603524738        6.6371072051      -20.1248112236
 H         2.4174032113        2.2933686299      -21.1497774952
 H         2.3135721087        0.8270899905      -20.2153539821
 H         5.1005620781        1.4921297700      -21.2893468526
 H         3.8603444874        1.2105220610      -22.4210775614
 H         6.1966020458       -4.2043344377      -21.5570813042
 H         4.7156501952       -3.7668959149      -20.6403525390
 H         7.5642225587       -3.8171001682      -19.6809782212
 H         6.5565825777       -5.1250756110      -19.2880600899
 H         7.3507344073       -2.1789429412      -14.0444386764
 H         6.6206454914       -3.7219554174      -14.5632315738
 H         4.5633657591       -1.6117058524      -13.8317465185
 H         5.7166892368       -2.3155565170      -12.5173230607
 H         1.9357099997       -4.9146247652      -10.5966176376
 H         0.7536774928       -3.7318841257      -10.9779764505
 H         2.0310474830       -2.1077483281       -9.3537913084
 H         2.9253250580       -3.4858051453       -8.7790009778
 H         0.9767789681       -0.8532184472       -4.8962742099
 H        -0.4027196801       -1.9393366639       -4.5645038154
 H        -1.1444135266        0.6465932155       -5.9886989461
 H        -1.2831115876        0.3928586237       -4.3350456137
 H        -4.0959632973       -2.6392267452       -7.0643126015
 H        -3.7037819577       -1.5870188799       -8.3262690060
 H        -6.4156096961       -2.9501489917       -8.4472497778
 H        -5.1211745718       -2.8268867988       -9.3836649873
 H       -10.0914737929       -3.0783713545      -10.8334049959
 H       -10.8707257828       -2.2564435884       -9.4593832255
 H       -11.1177988606       -4.7990327677       -9.3036908555
 H       -10.4181302101       -4.0667568030       -7.9477380794
 H       -10.2982884537       -7.2013570476       -5.9712151112
 H       -10.3621536716       -5.3867661113       -6.2127650645
 H        -8.4742084703       -6.9511065787       -4.4852782978
 H        -9.6084381111       -5.6138653089       -3.9628567151
 H        -7.1470765252       -3.5242455713       -0.7649336068
 H        -8.4221573761       -4.3223637955       -1.7552647362
 H        -8.8240077515       -1.5315192257       -1.8946042546
 H        -8.2658146253       -1.7361614320       -0.3493146293
 H       -13.2721631879       -0.9073799492       -2.1115638908
 H       -12.0472171820       -1.9697576942       -2.8828039935
 H       -12.1363280253        1.0660712638       -3.0403714081
 H       -12.9972401280        0.1319744867       -4.2231104414
 H       -12.0767294300        1.8371889331       -6.9146042766
 H       -11.5052560442        0.5299264010       -7.8930352145
 H       -12.0032080128        2.9816519749       -8.9103230977
 H       -10.7314876587        2.0162455431       -9.5202313796
 H        -7.9649944350        5.9449089163      -11.6895118515
 H        -7.6703033632        6.2421790404      -10.0100000922
 H        -9.0677550995        6.9751096591      -10.6602444740
 H       -12.0130868575        5.5203556873       -8.4566681810
 H       -11.9492111937        4.8214612292      -10.0402421307
 H       -11.5058725970        6.4853943346       -9.8645463729
 H        -8.3828258264        5.9622473546       -7.8086864157
 H        -9.9262295617        5.8229233587       -7.0325817947
 H        -9.5695263940        7.0915155765       -8.3377677001
 H       -10.5096839512        3.5298272246       -4.8360139239
 H       -11.3984120943        2.9395323996       -3.5887419319
 H       -12.0272961812        2.7773618195       -5.0997913164
 H        -8.3238464897        2.2294335063       -4.4228819992
 H        -8.2298344443        0.5123088936       -4.5793917695
 H        -8.8010427505        1.1866792804       -3.0676435333
 H       -13.3843628399       -1.6167885081        0.5249514008
 H       -12.4754429832       -2.9710384395        1.1225464963
 H       -13.0598668090       -3.0890380841       -0.4582710239
 H       -10.8338445186       -1.4660409818        2.0282675215
 H       -11.1137698492       -0.0317134270        1.0612861034
 H        -9.6044788099       -0.8915888903        0.9658848617
 H        -6.1898215402       -6.1785296707       -3.8387157167
 H        -7.3833157814       -5.8557147079       -2.4973438130
 H        -5.6223005277       -5.2815414778       -2.5185150331
 H        -4.8142157803       -3.3434801252       -4.3667800176
 H        -5.9454353322       -3.0405305863       -5.5661406509
 H        -5.2131099617       -4.6369502772       -5.4951841555
 H       -10.1483849016       -8.3704267737       -9.4156612652
 H       -11.0123231005       -6.9139906402       -9.5299815547
 H       -10.9338704068       -7.6121674350       -7.9702687469
 H        -6.9798987573       -7.0672302115       -9.3994377111
 H        -8.2339476627       -7.5725509890      -10.5763202330
 H        -7.8328633384       -8.6109908082       -9.0704039273
 H        -7.5082998189        0.2404410032      -11.4597027907
 H        -8.7380749267        0.3506895924       -9.9946072521
 H        -9.1370605208       -0.5761528176      -11.5438543930
 H        -7.9451668262       -2.9611635194      -11.7553393006
 H        -6.2622652289       -2.9253806256      -11.1082163783
 H        -6.7580400934       -1.7191968545      -12.1257211334
 H        -3.7349703171        1.1069934732       -4.2572843835
 H        -4.1793211260       -0.6676407169       -3.9060019464
 H        -5.2845294962        0.5538774206       -4.7066392769
 H        -2.9439036277        1.8004241161       -6.2442188143
 H        -4.2539843294        1.6413305478       -7.1597502789
 H        -2.7519247217        0.9037748368       -7.7122486692
 H        -0.0906145829       -3.9187530726       -4.9854964620
 H         0.3623515530       -5.2520365628       -6.0457296585
 H        -1.0915654265       -4.2365210968       -6.4616822436
 H         2.4112219154       -2.7374545622       -5.2561838155
 H         3.1405749177       -2.7648757601       -6.8258429679
 H         2.6562008683       -4.2822550725       -6.1239435396
 H         2.5638121511       -1.6611572189      -13.7584474303
 H         1.0897553810       -2.6072903440      -14.0978275472
 H         2.3461860519       -2.8810020603      -15.1690619423
 H         2.9193359158       -5.7329440551      -12.7938884702
 H         2.4680723387       -5.4116969449      -14.4338762293
 H         1.2506692399       -5.0279809374      -13.2246632740
 H         8.4151762324       -4.7577461505      -17.4439503366
 H         6.9079932274       -5.0224672436      -16.3354198726
 H         8.4314895071       -4.1821790217      -15.8203652279
 H         8.4809675249       -2.1897623538      -18.5142721381
 H         8.9673937769       -1.9526015299      -16.7658732450
 H         7.7459417781       -1.0031941510      -17.5248317473
 H         4.1134140988       -3.0788159978      -22.6597065818
 H         5.0481548965       -2.4679250158      -24.0001810393
 H         3.4581446237       -1.9089317977      -23.4505833641
 H         6.9301597294       -0.0121213434      -22.2075159216
 H         5.6579268455        0.6542475208      -23.0954059187
 H         6.4403958967       -0.8146022288      -23.8312432316
 H         4.5188944688        2.9465665292      -17.1432456599
 H         3.1510273731        3.8869900086      -16.5709760346
 H         4.4559496832        4.7695513057      -17.3450459103
 H         1.6726576822        5.0510935339      -18.2450602278
 H         1.2015122566        3.5533804142      -18.0406812439
 H         1.2766013870        4.0499784102      -19.7763909320
 Na       -8.0217290548       -1.5867553617       -5.9067902717
 Na        4.2245013668       -0.8549304590      -18.0128722577
