232

 C         3.6915042890        6.1880698408      -19.5382889998
 C         3.8593481332        4.7443627706      -19.8626904980
 O         4.3533817936        4.4308553595      -20.8956147552
 C         3.1744702280        3.6810147980      -18.7511544667
 C         3.4799782429        2.2395763814      -19.1451315647
 O         4.0127723489        1.4329344203      -18.4426725598
 C         2.8740621046        1.7707749083      -20.4540359194
 C         3.8554030302        1.1373588254      -21.4257558471
 C         4.2324817421       -0.3207248761      -21.2307047322
 O         3.7393125051       -1.0141367991      -20.3431671973
 C         5.1837850731       -1.2066340967      -22.2321765976
 C         6.1977251374       -2.0995364266      -21.1909730343
 O         7.2755289576       -1.6338874267      -20.8842940481
 C         5.7092108386       -3.4377643868      -20.6888497852
 C         6.4554318343       -3.9167348212      -19.4681749797
 C         5.9458838793       -3.3335425646      -18.1226493860
 O         4.7224986254       -3.1923562600      -18.0266672419
 C         6.9179760120       -2.9294642617      -17.1129381106
 C         6.3390222378       -2.1083716783      -15.9114931054
 O         5.8093548755       -1.0355000109      -16.1029099533
 C         6.6183484924       -2.5199919599      -14.3873075885
 C         5.1523208233       -2.3730522653      -13.7570846288
 C         4.4365130339       -3.7620802339      -13.6824728686
 O         5.0232353287       -4.8483954812      -13.8470446258
 C         2.9698546735       -3.6752348619      -13.1865926396
 C         2.8128670444       -3.1337293553      -11.6977624082
 O         3.3542076133       -2.1148432149      -11.4164114991
 C         1.7549063772       -3.8743452581      -10.7423505351
 C         1.9051810381       -3.4144674587       -9.3210990911
 C         0.9321726276       -3.9725832835       -8.3843166198
 O         0.1692241852       -4.8331429543       -8.7451779044
 C         0.9378758987       -3.5852187671       -6.8662550448
 C         0.2436668017       -2.1000427445       -6.8024332893
 O        -0.1096383597       -1.5481714040       -7.8364517029
 C         0.0896643369       -1.3101553371       -5.4957336311
 C        -1.0078115362       -0.3094217944       -5.5637382793
 C        -2.4460355443       -0.9941267553       -5.6466911797
 O        -2.6841557462       -2.1984039737       -5.6955708169
 C        -3.7191636873       -0.0856106508       -5.9017653991
 C        -4.8136096562       -0.9021677825       -6.7081619435
 O        -5.9899980260       -0.6989976101       -6.5256970849
 C        -4.4725151727       -1.9488187705       -7.8465194518
 C        -5.7439035834       -2.3789031122       -8.5784002753
 C        -6.3724779470       -1.3429784528       -9.4593689686
 O        -5.9081723158       -0.2346319166       -9.5572386635
 C        -7.7255026981       -1.5952598872      -10.1582067239
 C        -8.7256130596       -2.3492643882       -9.1979466579
 O        -8.6861545596       -2.0865360554       -8.0526781970
 C        -9.9863217987       -3.0532491125       -9.8076966554
 C       -10.2645882711       -4.1794335677       -8.8741883505
 C        -9.0275357414       -5.1145106718       -8.9426087609
 O        -7.9981457043       -4.7024744993       -9.3993100276
 C        -8.8745417714       -6.6844328560       -8.4564686154
 C        -8.5123773236       -6.5864353046       -6.9695863120
 O        -7.3066879866       -6.4909262719       -6.7421553469
 C        -9.5416068351       -6.3873210910       -5.9235095864
 C        -8.8878937939       -5.9324671392       -4.5737975388
 C        -8.1501186968       -4.6181547660       -4.8643257140
 O        -8.5474416468       -3.6869019630       -5.5632169095
 C        -6.8723027070       -4.2930291647       -3.9680822127
 C        -7.2504842538       -3.0983382166       -2.9868004089
 O        -6.9880973473       -1.9783301360       -3.4541678453
 C        -7.9371040792       -3.3858679792       -1.6873989044
 C        -8.7967005564       -2.1788615850       -1.2244017751
 C       -10.0809958777       -2.6923713241       -0.6481442311
 O       -10.3491072812       -3.8829760367       -0.7029234013
 C       -11.1450404957       -1.6706122261       -0.1268427398
 C       -11.3615846663       -0.6964221908       -1.3655186053
 O       -10.9336612419        0.4261299646       -1.3674709348
 C       -12.1720325695       -1.1856476128       -2.6867250959
 C       -12.2241142715       -0.1214355476       -3.8777186030
 C       -10.7981584533       -0.0125594709       -4.4584667402
 O       -10.1595090691       -1.0113359237       -4.4716911062
 C       -10.1238496511        1.3183555690       -4.9928624573
 C       -10.0825905241        1.0599780758       -6.6354204875
 O        -9.1618778255        0.4088825653       -7.1476055795
 C       -11.3400304910        1.4540433248       -7.3834092362
 C       -11.1225961164        2.5641482980       -8.4766659025
 C       -10.2132238843        3.7961371574       -8.0272454514
 O        -9.4079165906        3.5420465634       -7.1579895143
 C       -10.1623850325        5.1878180543       -8.8758039909
 C        -9.3818457886        4.9285448235      -10.2305522904
 O        -9.5447848114        3.9251331903      -10.9714878922
 C        -8.5589801645        6.1029244347      -10.8388797045
 C       -11.5915236428        5.5735118075       -9.2712389741
 C        -9.3883473707        6.1315749787       -7.9689586124
 C       -10.9206336663        2.5718775331       -4.5428957628
 C        -8.6625985072        1.5226580018       -4.4411937306
 C       -12.4377244149       -2.4937970708        0.0528833220
 C       -10.7823068220       -0.8696230864        1.1567701245
 C        -6.2926476030       -5.5071307868       -3.1681028547
 C        -5.8049614244       -4.0374840331       -5.0131418605
 C       -10.2871811916       -7.3383228969       -8.6862683938
 C        -7.7620752548       -7.3850489427       -9.3285640260
 C        -8.4149664245       -0.3316296585      -10.6677539308
 C        -7.4258091741       -2.5565650784      -11.4543632549
 C        -4.4575206697        0.4007972116       -4.6009633477
 C        -3.4697809112        1.1254694613       -6.8032388679
 C         0.1645319356       -4.5578742678       -5.9598583795
 C         2.3816902170       -3.4217291266       -6.3088679993
 C         2.1821388249       -2.6969380118      -14.1131965440
 C         2.3343898901       -5.0633225539      -13.3301630531
 C         7.5584703524       -4.2694005050      -16.6823552580
 C         8.0824178706       -2.0346853797      -17.5873882114
 C         4.5524394058       -2.1677318908      -23.2058409200
 C         6.0504750315       -0.2747607276      -23.0819284173
 C         3.9513916061        4.0066273327      -17.4273994806
 C         1.5908595015        3.7910469344      -18.7603659228
 H         4.5636485922        6.7374660056      -19.7860030083
 H         3.4868505343        6.5287797052      -18.5392934044
 H         2.9652522014        6.7032647110      -20.0949740769
 H         2.4013197008        2.5839482942      -20.9803214920
 H         1.9965190433        1.1105061879      -20.2247797533
 H         4.7864376767        1.6712901142      -21.7485070378
 H         3.2291204871        1.0929339685      -22.3370395009
 H         5.6144730129       -4.2758372589      -21.3643394984
 H         4.7053334232       -3.1807047999      -20.2671348483
 H         7.6450754270       -3.7267837636      -19.5770694579
 H         6.4130371530       -4.9246483342      -19.4390871132
 H         7.2952853610       -1.7402975190      -13.9988726041
 H         7.0736081117       -3.4817270378      -14.2488195398
 H         4.6421383282       -1.6523901325      -14.3552304387
 H         5.3072103499       -2.0578656829      -12.7228058335
 H         1.9536850972       -4.9573132340      -10.7331132250
 H         0.8556147403       -3.7600828120      -11.2887447905
 H         1.7987323029       -2.2848429088       -9.2435195963
 H         2.9776157129       -3.5706892629       -9.0325745710
 H         1.0290872803       -0.7309427174       -5.4798609344
 H         0.0264595069       -1.9224670623       -4.5925107475
 H        -0.9488834881        0.1702342326       -6.5664204857
 H        -1.0787074603        0.5762319495       -4.9504502562
 H        -3.9848849733       -2.7821694833       -7.3774998012
 H        -3.6743096068       -1.5093929095       -8.4527725019
 H        -6.4770793258       -2.8399528010       -7.8835374332
 H        -5.4475828074       -3.3910118500       -9.0708970764
 H        -9.6247912345       -3.3806185399      -10.8382217186
 H       -10.8622665682       -2.3405106778       -9.8748803633
 H       -11.2463939064       -4.6571032607       -9.1578571293
 H       -10.4203250846       -3.8540819000       -7.8320826280
 H       -10.0894873032       -7.2609089163       -5.6261620730
 H       -10.2225632808       -5.6142958289       -6.3151015792
 H        -8.1956441555       -6.7128922130       -4.3537292611
 H        -9.5502726485       -5.7649112372       -3.6955148736
 H        -7.1935455062       -3.5496739867       -0.9187032867
 H        -8.6361384222       -4.2254310198       -1.7341897337
 H        -9.0405606044       -1.4417994553       -2.1005630469
 H        -8.3355191001       -1.5521938123       -0.4517193528
 H       -13.2253586668       -1.4082946941       -2.3615459334
 H       -11.7762890478       -2.1097151182       -3.1014289254
 H       -12.6316035051        0.8680080781       -3.6180038744
 H       -12.8130260115       -0.4211958137       -4.6788234616
 H       -12.1723867423        1.9516916814       -6.7729584416
 H       -11.7033018960        0.4370095101       -7.8307095838
 H       -12.0927005674        2.8745259606       -8.9033209072
 H       -10.5804904330        2.0851247919       -9.3690034232
 H        -8.3709261806        5.9315307137      -11.9574934023
 H        -7.6354937973        6.2975181000      -10.2597598956
 H        -9.1780134147        6.9806107994      -10.7119195503
 H       -12.3046287704        5.5217246523       -8.4447820524
 H       -12.0652046625        4.8348021946       -9.9955708117
 H       -11.7092821239        6.4921230331       -9.7105075460
 H        -8.3114779816        6.0273353727       -8.0283568418
 H        -9.7130061485        5.9639194614       -6.9095700395
 H        -9.5816410392        7.1686269466       -8.2223862606
 H       -10.5769646344        3.5524584806       -4.8757639481
 H       -10.9485170993        2.7597234593       -3.4205445719
 H       -12.0010850843        2.5965092372       -4.7665524086
 H        -8.0386120980        2.1034005636       -5.1978924009
 H        -8.1349215010        0.5597985008       -4.3159276292
 H        -8.5952717042        1.9985995953       -3.4724801639
 H       -13.2916050020       -2.0078054313        0.4730666730
 H       -12.3204042249       -3.3568027819        0.7164258867
 H       -12.8234347238       -2.8973320033       -0.8607244707
 H       -10.0945951751       -1.5062177185        1.6626007333
 H       -11.6785166486       -0.5892157556        1.7428863461
 H       -10.1278688349        0.0006276795        0.8795639724
 H        -5.7769018594       -6.2012399282       -3.8863488602
 H        -7.0871462402       -5.8522185397       -2.5502966800
 H        -5.5380062529       -5.0381680993       -2.5701115154
 H        -4.8311676102       -3.9302403450       -4.5014307135
 H        -5.8637328394       -3.1001052344       -5.5154534064
 H        -5.7463595659       -4.9227482634       -5.7027280041
 H       -10.4758975712       -8.3139989843       -8.2118834239
 H       -10.5024587140       -7.3595718927       -9.7969886208
 H       -11.0466920470       -6.6648455653       -8.3671401339
 H        -6.7948334715       -6.9690709267       -9.0601832548
 H        -7.9326669225       -7.1798673704      -10.3724156246
 H        -7.7537510859       -8.4559723226       -9.1801337461
 H        -7.6391359182        0.3314489918      -10.8979384300
 H        -8.9894052401       -0.0458593975       -9.7991737791
 H        -8.9924237254       -0.6521499640      -11.5338613784
 H        -8.2053627260       -2.4014500207      -12.2119305215
 H        -7.3154794663       -3.5713211370      -11.1779334310
 H        -6.4536838730       -2.2720606493      -11.9619148560
 H        -3.7151484882        0.9874005744       -4.0118195863
 H        -4.8008917183       -0.4307659954       -4.0139483512
 H        -5.2492869939        1.1220524259       -4.8007111960
 H        -2.7085921985        1.8530082642       -6.4487974481
 H        -4.3333934869        1.7921759037       -6.8036136602
 H        -3.1951953057        0.9148805875       -7.8470877039
 H         0.0879013409       -4.2789658027       -4.9713298734
 H         0.6551089385       -5.5790640610       -6.0352673067
 H        -0.8471595714       -4.7291127533       -6.3693462194
 H         2.3797726437       -3.5107410858       -5.1651960286
 H         2.8189636288       -2.4175810470       -6.4458175645
 H         3.0837747890       -4.1582590556       -6.6884511855
 H         2.2755969620       -1.6181547853      -13.7176356361
 H         1.1484369761       -3.0429487601      -14.0703048883
 H         2.3476111955       -2.8106458731      -15.1051964832
 H         2.9985275280       -5.8429843970      -13.0211664241
 H         2.1004894987       -5.1383457283      -14.3830965678
 H         1.3320840019       -5.0284050292      -12.9034377959
 H         8.0915235943       -4.7102658204      -17.4783523126
 H         6.7824761252       -4.9181064104      -16.1926673010
 H         8.3187485889       -4.0503972971      -15.9540298993
 H         8.9521524134       -2.6220891864      -17.9548345189
 H         8.2803942882       -1.5125597114      -16.6940312558
 H         7.8234431769       -1.3205852637      -18.4114893519
 H         3.8483522750       -2.8893018852      -22.7688062314
 H         5.2744024858       -2.7830888847      -23.6706490692
 H         3.9177561438       -1.7269302247      -24.0577854588
 H         6.1644296548        0.6216812822      -22.4949375941
 H         5.6514308898        0.0924416604      -24.0660278263
 H         6.9446008223       -0.7573202353      -23.1767898617
 H         3.4844647969        3.3351591855      -16.7077257004
 H         3.7436918330        5.0839925441      -17.1344499876
 H         5.0030234586        3.8085237581      -17.6166319484
 H         1.1427634724        4.7725756999      -18.4413271579
 H         1.1623231120        3.0691067404      -18.1022775124
 H         1.3568925112        3.6015296427      -19.7796296229
 Na       -8.0877630348       -1.2841925382       -5.6195993710
 Na        4.4619196085       -0.8475121636      -18.1615665231
