232

 C       -22.8914933670       -6.5733490270       -2.7051313420
 C       -21.5269601742       -5.9770637586       -3.1203694786
 O       -20.5413636345       -6.2936079684       -2.5009907790
 C       -21.4714038058       -4.8870743147       -4.3019133934
 C       -20.1674293360       -4.1064596647       -4.2078664993
 O       -19.6760268793       -4.0151179719       -3.1166280389
 C       -19.4720546370       -3.5098605692       -5.4107195508
 C       -18.2498180036       -2.6554227421       -4.9068808898
 C       -17.3309588157       -3.2627701053       -3.8527431172
 O       -17.2591008418       -4.5051602287       -3.9000504660
 C       -16.5185448601       -2.3600535579       -2.8417776621
 C       -16.1344737029       -3.4463275571       -1.6954936948
 O       -16.9856883953       -3.5825354260       -0.8342144177
 C       -14.7496154885       -4.1410237967       -1.5802889002
 C       -14.7982494712       -5.4529614790       -0.7551317018
 C       -15.2555089162       -6.6376433753       -1.5775051839
 O       -16.4139667173       -6.9578710200       -1.8081671679
 C       -14.1190756234       -7.7532173394       -1.9530403880
 C       -12.8674197652       -7.1156090653       -2.6360805248
 O       -13.0214739945       -6.2031650268       -3.4325526974
 C       -11.5294137833       -7.7049162076       -2.4470913379
 C       -11.3577314907       -9.1641109403       -2.7826266580
 C       -10.2178420644       -9.7411686766       -1.9345351967
 O       -10.4323147434       -9.9381449875       -0.7501404070
 C        -8.8363985755      -10.1520605772       -2.6167247504
 C        -8.2120325650       -8.9217557180       -3.5002605551
 O        -8.8578900705       -7.9710812221       -3.8780846210
 C        -6.7838220582       -9.0371693790       -3.9696053476
 C        -6.0436858153       -7.7238708353       -4.2607797671
 C        -6.1123421683       -7.2944597443       -5.7706023609
 O        -6.2792795382       -8.0483178202       -6.6864307603
 C        -5.7672102175       -5.8734565996       -6.3352701240
 C        -4.3430659601       -6.0901042363       -7.2049920783
 O        -3.3123123120       -6.0732796416       -6.5968490611
 C        -4.4579380168       -6.4255884528       -8.7212254834
 C        -4.1650003382       -5.0940562707       -9.5779113045
 C        -4.3866486245       -5.2728939371      -11.0580498442
 O        -4.1015797939       -6.2874571839      -11.6199348811
 C        -5.1556224543       -4.1012333764      -11.8364683820
 C        -4.2614817238       -2.8429689439      -11.5527180538
 O        -4.1939637070       -2.4204180870      -10.4113920622
 C        -3.4308788553       -2.1619238002      -12.6165726874
 C        -2.2380512643       -1.3238094569      -12.1097004002
 C        -0.8736586252       -1.6124927392      -12.8131418411
 O        -0.4718992774       -0.6674517310      -13.4878996547
 C         0.0850804946       -2.7689301659      -12.2998465302
 C         1.5862107002       -2.2982067144      -12.5046477143
 O         2.3699777495       -3.0045012840      -13.1618691819
 C         2.1676846902       -1.0478065845      -11.7830152526
 C         3.6383285812       -0.8177150440      -11.7654585962
 C         4.0456797572        0.4695132151      -10.9750509841
 O         3.2394777433        0.9127974279      -10.1451603649
 C         5.3977111665        1.2402775293      -11.3216980124
 C         4.9683536588        2.3606396568      -12.3831704458
 O         5.2066536178        2.2351756271      -13.5664650558
 C         4.2621143210        3.5583227304      -11.7830298076
 C         5.0682248633        4.8512989722      -11.5287921127
 C         5.6054531609        5.4676003120      -12.8601594113
 O         5.0173107913        5.1801114110      -13.8564145027
 C         6.8133357355        6.5981448684      -12.7712504599
 C         7.4248494015        7.1243232466      -14.0503295373
 O         7.2043977596        8.2854169959      -14.4312284645
 C         8.5319317389        6.3783188642      -14.7812006516
 C         8.5534193908        6.7268214383      -16.2669630586
 C         7.1451279527        6.4164958211      -16.9467447289
 O         6.2905594811        5.6944145381      -16.4681072632
 C         6.8257716610        7.0964072500      -18.3671449666
 C         7.9351271860        6.8931810001      -19.3146529734
 O         8.8526823438        7.6343760798      -19.4203068796
 C         7.8710740114        5.6000149632      -20.1768840999
 C         9.2780633280        5.1421021558      -20.7626825627
 C         9.8307295095        4.0550238688      -19.7526727765
 O         9.9968195119        4.2771684890      -18.5781902392
 C        10.0257581623        2.5682740371      -20.2427121165
 C         8.9806953185        1.7700577914      -19.2888695642
 O         7.7524781619        1.7108470014      -19.4625398350
 C         9.5877101624        1.2485715667      -17.8708490382
 C         8.6112865565        0.1744950731      -17.2705321800
 C         7.3109637571        0.8753525578      -16.7571314414
 O         7.2795492969        1.7443667527      -15.8996971577
 C         5.9553115407        0.4489189096      -17.4441429453
 C         5.2806526826        1.7094747223      -18.1889869848
 O         5.2553106551        2.7878252067      -17.6453232584
 C         4.7651445210        1.5848287545      -19.5690648021
 C         6.0163390644       -0.7354274792      -18.3577524583
 C         5.0358285250        0.1092877019      -16.2272129003
 C         9.4840884620        2.3283701397      -21.6258768030
 C        11.5412342069        2.1552090391      -20.2137992077
 C         5.3825402811        6.5916946707      -18.7966712010
 C         6.6381253031        8.6561766293      -18.1007301928
 C         6.1739355055        7.8011958355      -12.0047064824
 C         7.9718687485        5.9151116483      -11.8854538196
 C         5.8527350320        1.8400484945       -9.8818556874
 C         6.4488719801        0.2813572693      -11.9889782025
 C        -0.2670286724       -3.1289713075      -10.8543576085
 C        -0.0001330816       -4.1397629163      -13.1313800010
 C        -5.2822729310       -4.4371057879      -13.3721542354
 C        -6.5808505528       -3.9944265207      -11.2011851351
 C        -6.9622958462       -5.5090748964       -7.2063549539
 C        -5.4562980782       -4.7274749755       -5.3551939680
 C        -7.8202270262      -10.5851119566       -1.5926555267
 C        -9.2469623827      -11.3464017299       -3.6013390052
 C       -13.7869572355       -8.4194002518       -0.6428430874
 C       -14.8619687596       -8.8386120740       -2.7956596583
 C       -15.3182222112       -1.5858029356       -3.4331334711
 C       -17.3965091473       -1.2279578585       -2.2139079683
 C       -21.7159968763       -5.4792172195       -5.7222273867
 C       -22.6126639805       -3.8930068195       -3.9775518956
 H       -23.5509791294       -5.7518141550       -2.4783570900
 H       -22.7035027324       -7.2155983483       -1.8420032866
 H       -23.3484852783       -7.0310399517       -3.6654824090
 H       -20.1471429436       -2.8199620254       -5.9692948150
 H       -19.0464735660       -4.3205477917       -6.0073815957
 H       -18.4324011728       -1.6286943701       -4.5166787965
 H       -17.6638579936       -2.4545148459       -5.8173501375
 H       -14.0784007851       -3.4270526118       -1.1041395319
 H       -14.4164410956       -4.4013721888       -2.5747026659
 H       -15.6174016721       -5.3178128395       -0.0569071543
 H       -13.8476862534       -5.6741039651       -0.2734844778
 H       -11.2579757926       -7.6321860971       -1.3646560471
 H       -10.8137234635       -7.1575385067       -2.9881777824
 H       -11.1769448286       -9.2023662890       -3.8266128625
 H       -12.3581556680       -9.5957488470       -2.5779779763
 H        -6.8779919378       -9.6036750651       -4.8865419980
 H        -6.0923252512       -9.6182355203       -3.3690779546
 H        -5.0773161686       -7.8656162278       -3.7948609949
 H        -6.5276693329       -6.8989620064       -3.7798825767
 H        -5.4004411652       -6.8191692032       -9.0139958113
 H        -3.6617979243       -7.2086717872       -8.8892743132
 H        -3.1760184899       -4.8103766992       -9.3880569997
 H        -4.7781691830       -4.3104407522       -9.1277384731
 H        -4.0476337975       -1.6122618905      -13.2797656024
 H        -3.0925726286       -3.0592288762      -13.0692382549
 H        -2.1006470576       -1.5312997893      -10.9985168063
 H        -2.5502886101       -0.3268061333      -12.2360857903
 H         1.9484078470       -1.2063251459      -10.7232858629
 H         1.5444722098       -0.3096785517      -12.1458634262
 H         3.9718430141       -0.6132598838      -12.8116044784
 H         4.0620574962       -1.7524564275      -11.3670559629
 H         3.5453247105        3.3413350731      -11.0047887684
 H         3.5762457775        3.8889488913      -12.6132609725
 H         5.7953839961        4.6369480462      -10.7259933501
 H         4.4661250379        5.7405317812      -11.1640781482
 H         8.5937394938        5.3182641967      -14.5459684940
 H         9.4028078082        6.8322447616      -14.2840619131
 H         9.1358243184        6.1500161588      -16.8309258638
 H         8.7964554610        7.8121104208      -16.4593123076
 H         7.0524864900        5.6968330025      -20.8828002641
 H         7.5301660462        4.8231473565      -19.5497526965
 H         9.8531417582        6.1206404659      -20.7620285491
 H         9.1824997990        4.8625162564      -21.7769134975
 H         9.7384561021        2.0371979721      -17.1069850854
 H        10.6754832448        0.9429512835      -17.9842125542
 H         9.1097827023       -0.3591709183      -16.4462551881
 H         8.5022874246       -0.4937896580      -18.1498874060
 H         5.5066438152        1.1846212972      -20.2499094964
 H         4.5566904157        2.5661313672      -19.8932227448
 H         3.7902951770        0.9977594302      -19.5313131259
 H         5.0534765043       -0.9863644066      -18.7036612088
 H         6.3320292513       -1.5411926483      -17.7033258575
 H         6.5900457625       -0.5581126366      -19.2735172819
 H         4.0685860644       -0.0100677819      -16.5609827623
 H         5.0524065453        0.8270755828      -15.4513058314
 H         5.6203709369       -0.7136608303      -15.7747933237
 H         9.8510025830        1.2683621736      -21.8654431672
 H         9.8395319725        3.0442844081      -22.4430748458
 H         8.3815431107        2.3896508650      -21.5280314424
 H        11.6978048524        1.1213035825      -20.3486983734
 H        11.8450152741        2.4062258172      -19.2257010778
 H        12.1629283471        2.6780382101      -20.9110566170
 H         4.7612144237        6.6418830083      -17.9351991791
 H         5.3671177438        5.5524579658      -19.0929627743
 H         4.8879840741        7.2577758467      -19.5430703049
 H         7.5829128386        9.1895932975      -18.2239045107
 H         6.4232651515        9.0233646959      -17.0927899754
 H         6.0338184148        9.0552500654      -18.8743816455
 H         6.9460722476        8.5192891226      -11.6725318888
 H         5.5748752477        7.4997252805      -11.1493388025
 H         5.6305053344        8.4421167125      -12.6964124439
 H         7.5705201575        5.8203297032      -10.8994303495
 H         8.8641520285        6.6126926544      -11.7571818523
 H         8.3793848160        4.9999991915      -12.3363553690
 H         6.7830870957        2.2802338986       -9.7008187975
 H         5.8906478661        0.9524096245       -9.3305623356
 H         5.1012244983        2.4990047735       -9.3409581133
 H         6.8006645602       -0.4070536070      -11.2482542193
 H         7.2118797045        0.8612564046      -12.4452775493
 H         5.8393284829       -0.2957035215      -12.6644466380
 H         0.1503512647       -2.4517642723      -10.1128957009
 H         0.1129812028       -4.1301638736      -10.4777677307
 H        -1.3318228677       -3.0750665857      -10.5980617479
 H        -0.9967095460       -4.4382093605      -13.2884376465
 H         0.4851686163       -4.9286604758      -12.6341464970
 H         0.4415314540       -4.0624393340      -14.1081225307
 H        -4.7844027495       -3.7677906131      -14.0963692910
 H        -6.3928297325       -4.5656422545      -13.5162840739
 H        -4.9167122287       -5.4579320474      -13.4902981965
 H        -7.2749698648       -3.3615313320      -11.8755515541
 H        -6.6951198094       -3.5460062980      -10.1992586029
 H        -7.1251089363       -4.9616582300      -11.1773585393
 H        -7.3890973272       -6.3127744567       -7.7767346660
 H        -6.7832547891       -4.6508861878       -7.9337317883
 H        -7.8192449090       -5.2324387438       -6.5677990142
 H        -6.3038828096       -4.4117903645       -4.7142944729
 H        -5.1470107432       -3.8493896843       -5.9342845758
 H        -4.5996626739       -4.9741926708       -4.7523477653
 H        -8.3507189266      -11.4047890055       -1.0678322784
 H        -7.6057257444       -9.8181259121       -0.8405653701
 H        -6.9762382006      -10.9939504695       -2.1151130828
 H        -9.6158726668      -12.2536609308       -3.0682672488
 H        -8.4685952176      -11.5606893603       -4.3053034968
 H       -10.1447257341      -10.9624193828       -4.1697794290
 H       -12.9692931954       -7.9044171043       -0.1133743426
 H       -13.3940106917       -9.4879775464       -0.6701298791
 H       -14.6411126342       -8.4534970062        0.0595804870
 H       -15.0795338444       -8.3285115783       -3.6921307802
 H       -15.8142162411       -9.1209706751       -2.2565146993
 H       -14.1791506607       -9.7079463813       -2.9455950399
 H       -14.5163845883       -2.1669522555       -3.7797942525
 H       -14.9628236217       -0.9046822304       -2.6885435122
 H       -15.5144164090       -0.9004480066       -4.2843980320
 H       -18.3860578509       -1.6296642551       -1.9900605083
 H       -17.3668324868       -0.3750257104       -2.9465466905
 H       -16.9586826567       -0.7940820441       -1.3013663377
 H       -21.1378785519       -6.3284355521       -6.0287490703
 H       -21.4040401619       -4.6388512692       -6.3652191001
 H       -22.8976774460       -5.5477764365       -5.8528492643
 H       -22.3384552849       -3.0206769202       -4.5565738419
 H       -22.6818369789       -3.6234987720       -2.9244877386
 H       -23.5089227946       -4.2221672266       -4.4635035416
 Na      -18.3350469243       -5.5937873781       -1.8323922795
 Na        5.4354582162        3.6673419639      -15.5212389241
