232

 C         2.6373719283        6.5109616274      -20.3122550620
 C         3.2001429903        5.1567848055      -20.2087252217
 O         4.0560600720        4.8413461703      -20.9992586207
 C         2.8251296825        4.2791368822      -18.9784369680
 C         3.3450397650        2.7788191234      -19.4516469588
 O         4.3636875854        2.2523817090      -18.9783780092
 C         2.6765403668        1.9755793139      -20.5904377044
 C         3.7328213637        1.2136445612      -21.4474941750
 C         3.9650172490       -0.2498730581      -21.0787385536
 O         3.3011767620       -0.8340796836      -20.2034294361
 C         5.1841625713       -0.9179032843      -22.0494376907
 C         5.9602140326       -1.7481993588      -20.9087921243
 O         6.6151043360       -1.0790384490      -20.1315961087
 C         5.8594827229       -3.3064575165      -20.8692040618
 C         6.3643876495       -3.9237705401      -19.5606447386
 C         6.0726035680       -2.9975324872      -18.3773018774
 O         4.9122490252       -2.6423439479      -18.1954090203
 C         7.2408790474       -2.7845782194      -17.2692179572
 C         6.6091539046       -1.9217790670      -16.1310556667
 O         6.0961453382       -0.8732157981      -16.3941167591
 C         6.5669082770       -2.3016707382      -14.6463916046
 C         5.1045072834       -2.3424703460      -14.2531339700
 C         4.4180916799       -3.7397376963      -14.3079328407
 O         4.9276070488       -4.6241404148      -14.9382132460
 C         3.0000802171       -3.9564516511      -13.5853688322
 C         3.2396652544       -3.8156300516      -11.9975154359
 O         3.8306699869       -2.8415888728      -11.4997814008
 C         2.5106308861       -4.6943151266      -11.0384952644
 C         2.4600682581       -4.1515167589       -9.5760754904
 C         1.3004282067       -4.9058805497       -8.7987241165
 O         0.7998152850       -5.9517522863       -9.2383548699
 C         1.0669173673       -4.3798618148       -7.2831490914
 C         0.3840773573       -3.0524781930       -7.4766473364
 O         0.1155621154       -2.7496536916       -8.6209236040
 C         0.2477872935       -2.0194460525       -6.3459545480
 C        -0.7483985432       -0.8340844128       -6.4891858677
 C        -2.2239493746       -1.2470066904       -6.2835279733
 O        -2.5615537263       -2.3717650794       -5.9473383407
 C        -3.3792447985       -0.2301049037       -6.5097408295
 C        -4.6416769683       -1.0141439154       -6.8335455944
 O        -5.6510547200       -0.8313055993       -6.2259155335
 C        -4.5601463604       -2.0519602959       -7.9862533898
 C        -5.8701301374       -2.5844358140       -8.5685032378
 C        -6.6932769931       -1.3825185769       -9.2252557566
 O        -6.1194313553       -0.3299367978       -9.2708556997
 C        -8.1535581267       -1.7336892978       -9.8151173277
 C        -8.8653623644       -2.7252309902       -8.9007883252
 O        -8.9277236945       -2.4232093436       -7.7057023996
 C        -9.5978735580       -3.9659703404       -9.5068548866
 C        -9.9068270212       -5.2093478793       -8.7414770565
 C        -8.6182410926       -6.0495178939       -8.4947262273
 O        -7.5826481252       -5.6461080517       -9.0431719294
 C        -8.6565992808       -7.3460017412       -7.4284393662
 C        -8.3552109020       -6.7023449868       -5.8895714114
 O        -7.2602665942       -6.6465788230       -5.3531332967
 C        -9.5711377399       -5.9909268724       -5.3714331943
 C        -9.3484854980       -5.2916567751       -3.9516932560
 C        -8.3651003297       -4.1584577957       -4.2201864020
 O        -8.7045087590       -3.4355268704       -5.0939233490
 C        -6.9399736389       -3.9221199231       -3.4490116471
 C        -7.2006949899       -2.5211951556       -2.7976829392
 O        -7.3781490625       -1.5398325699       -3.4344940685
 C        -7.0752925410       -2.2966927895       -1.2566011956
 C        -8.3194018751       -1.5919510462       -0.7439726054
 C        -9.5503019236       -2.3354003958       -1.2589703849
 O        -9.4668883499       -3.1045367828       -2.1936643873
 C       -10.9527029881       -1.9639863039       -0.5986552548
 C       -11.6083952984       -0.8755105609       -1.6036882866
 O       -11.8118376251        0.2904135820       -1.3417948547
 C       -12.0581059944       -1.4375535575       -2.9891671442
 C       -11.9738318016       -0.4069313492       -4.0916093381
 C       -10.5312335973       -0.0044909064       -4.3654204150
 O        -9.6920943499       -0.8619197205       -4.1904483232
 C       -10.2355133933        1.4296401130       -4.8512766712
 C       -10.3289472654        1.4125089830       -6.4113593592
 O        -9.4277642333        0.8103792159       -7.0159188147
 C       -11.4580855313        1.9486384141       -7.1564535477
 C       -11.1070532751        2.7611659202       -8.3561375129
 C       -10.3544119947        4.0420245202       -7.8483389382
 O        -9.6098371202        4.0020174105       -6.8810154888
 C       -10.7626524814        5.4448380162       -8.5712746791
 C       -10.3689498272        5.3876250466      -10.0576819980
 O       -10.5704568150        4.4010872524      -10.6772126268
 C        -9.8395191049        6.6219634010      -10.7837026964
 C       -12.2436830082        5.8329207169       -8.3668695756
 C       -10.0147115400        6.5800189652       -7.8327176130
 C       -11.2057386486        2.4926216725       -4.1534362115
 C        -8.7858799525        1.8083017826       -4.5943493620
 C       -11.8643802131       -3.1180545364       -0.4527253166
 C       -10.8105093452       -1.2805514941        0.7953233422
 C        -6.6425255626       -5.0389393980       -2.4164517827
 C        -5.6814098977       -3.7443156878       -4.3994162176
 C        -9.9946507618       -8.1141405231       -7.4465598150
 C        -7.4749367587       -8.2815304969       -7.7062391969
 C        -8.9600874201       -0.4923219745       -9.9345275108
 C        -7.8831977415       -2.3413842789      -11.1901583320
 C        -3.5376764376        0.6604439308       -5.2186018429
 C        -3.1966993817        0.7719898317       -7.7628436229
 C         0.1080478153       -5.4377616084       -6.6133700734
 C         2.3360938960       -4.2158432617       -6.3913699735
 C         2.0183030842       -2.8430081299      -13.8720972909
 C         2.4368238271       -5.4042391459      -13.9382991813
 C         7.5837719668       -4.2191385406      -16.7796711932
 C         8.4596294125       -2.0297440147      -17.8568016210
 C         4.3684336065       -1.5626104093      -23.1053341856
 C         6.4635560963       -0.1208509576      -22.6021207539
 C         3.6043681123        4.7617837769      -17.7564483160
 C         1.2502937748        4.2357549597      -18.6719979995
 H         3.0607655267        7.0294619120      -21.2215118638
 H         2.8859204346        7.1879403481      -19.4257312610
 H         1.5282769643        6.6546639244      -20.4214235498
 H         2.1999454333        2.7897116704      -21.2072397254
 H         1.8686742289        1.3967998221      -20.1727393390
 H         4.7263438251        1.6681202680      -21.3049301068
 H         3.4267524809        1.1991642039      -22.4464247970
 H         6.2524612800       -3.7561335690      -21.7624760613
 H         4.8284547907       -3.6708053714      -20.9990173689
 H         7.3333614862       -4.1146718659      -19.6819381535
 H         5.7602125698       -4.8549115544      -19.4255586654
 H         7.1625189038       -1.5651086329      -14.1166988020
 H         7.0677109096       -3.2770558962      -14.4475082916
 H         4.4648812175       -1.5650336158      -14.6765299346
 H         5.0109680951       -2.0029673994      -13.1683329043
 H         2.9171503332       -5.7315926788      -10.9371666356
 H         1.5087139477       -4.8209881642      -11.3785709041
 H         2.3728247896       -3.0729128943       -9.5698849522
 H         3.4288911374       -4.4565609616       -9.1707889115
 H         1.2233860036       -1.5659048770       -6.0734335101
 H        -0.0262679805       -2.5683533565       -5.4830584376
 H        -0.7128294020       -0.4710731358       -7.5726550824
 H        -0.5925557333       -0.1299782121       -5.6867551277
 H        -4.1685820130       -2.9485151234       -7.4794021115
 H        -3.9728353141       -1.6370373736       -8.8103289162
 H        -6.5724621963       -2.9223646718       -7.8484899159
 H        -5.5688424878       -3.3434534054       -9.2017889969
 H        -9.1509530235       -4.2093213839      -10.4366075099
 H       -10.5809476112       -3.5835388083       -9.7092731517
 H       -10.5858705606       -5.8157192869       -9.3774036152
 H       -10.2610745264       -5.0527536289       -7.7526002240
 H       -10.4253456983       -6.6354708936       -5.3440853653
 H        -9.9134015618       -5.1723168371       -6.0399100190
 H        -9.0194805580       -6.0705546548       -3.2392436471
 H       -10.3246455287       -5.0033351459       -3.5507417186
 H        -6.1486843104       -1.8844729341       -0.9650857646
 H        -7.0828601471       -3.3328013079       -0.7097454224
 H        -8.3293223118       -0.5752317995       -1.1441959808
 H        -8.3925103025       -1.6444285051        0.2971187742
 H       -13.0232500067       -1.9438947748       -3.0541882429
 H       -11.3338116290       -2.2397865314       -3.2442799296
 H       -12.6207252384        0.4480356253       -3.8368901778
 H       -12.2264650496       -0.8448687539       -5.0738170644
 H       -12.1151979987        2.5675464493       -6.5817559698
 H       -12.0637648163        1.1221176065       -7.4088837229
 H       -11.9847996040        3.0678462043       -8.8796529609
 H       -10.5122155311        2.2208022086       -9.0033137184
 H        -9.8722742837        6.6264053071      -11.8327209218
 H        -8.8123483936        6.6900381624      -10.4518068775
 H       -10.4080625202        7.5011774440      -10.3197758461
 H       -12.3409690103        5.8882999435       -7.3051726024
 H       -13.0153501382        5.2651164564       -8.8026214588
 H       -12.3701106974        6.9321113090       -8.6663376375
 H        -9.1542931363        6.3086129929       -7.2248244990
 H       -10.6416339581        7.0268494902       -7.0595738180
 H        -9.5512902386        7.3873280800       -8.4823756610
 H       -11.0618819157        3.5137725051       -4.4465832896
 H       -11.0904825928        2.4522155900       -3.0976864743
 H       -12.2630549686        2.2961331230       -4.2602974764
 H        -8.5385451476        1.2825534149       -3.7238869598
 H        -8.8324368477        2.8567510109       -4.4519949991
 H        -8.1248042942        1.6763781934       -5.4827637873
 H       -12.9627593222       -2.8591894593       -0.3114201963
 H       -11.6311424291       -3.8323404461        0.3550930765
 H       -11.9140282015       -3.8638631382       -1.2893373879
 H       -10.0836761312       -1.8540409135        1.4585139547
 H       -11.7560998283       -1.2244628129        1.3561719148
 H       -10.4121049815       -0.2289821736        0.7383846759
 H        -6.6839420259       -5.9653345242       -2.9860260104
 H        -7.3377089604       -4.9828350752       -1.5989206519
 H        -5.6048093164       -4.9467580044       -1.9807123073
 H        -4.7810138830       -3.8530139016       -3.8063530602
 H        -5.7232735166       -2.8149621307       -5.0425953789
 H        -5.6059003520       -4.5235139220       -5.1732859884
 H       -10.7582288909       -7.6949222503       -6.7988952269
 H        -9.8826802706       -9.1703640674       -7.2772739015
 H       -10.4737096950       -8.1381396313       -8.4859390501
 H        -6.6059853799       -7.8184791264       -8.0616490243
 H        -7.8300669048       -8.9193862280       -8.4931873175
 H        -7.2817280458       -8.8512730507       -6.8220279292
 H        -8.4134405003        0.2405909262      -10.5161534064
 H        -9.2057751310       -0.2674878585       -8.9328491760
 H        -9.8056901285       -0.7887705469      -10.4817415320
 H        -8.9284502777       -2.4372243081      -11.6061074412
 H        -7.3795240045       -3.3335160359      -11.2833857165
 H        -7.2129745358       -1.7666732439      -11.7419574165
 H        -2.5745992927        0.7832975501       -4.7706915484
 H        -4.2165180429        0.1113962374       -4.6124094154
 H        -3.8651997043        1.6439040260       -5.4037794034
 H        -2.1919615673        0.9386763414       -8.0198265679
 H        -3.6149669908        1.7290407774       -7.4643973403
 H        -3.7410581200        0.4088112503       -8.6795858353
 H        -0.1625625408       -5.1175180834       -5.5202024216
 H         0.3631972749       -6.4279440558       -6.5230190753
 H        -0.8832881128       -5.3219380642       -6.9976104803
 H         1.9846098852       -4.1316935074       -5.3893684871
 H         2.8175183091       -3.3184795283       -6.5556248205
 H         3.0687442847       -5.0544169385       -6.6573394189
 H         2.4167725379       -1.9815309584      -13.4222764003
 H         0.9794081229       -3.0757476924      -13.6764674127
 H         1.9308144479       -2.6060882851      -14.9908080972
 H         2.5652320446       -6.1435016324      -13.1289113239
 H         2.9315774998       -5.8294796499      -14.7992397128
 H         1.3548533603       -5.2777899577      -14.1188675558
 H         8.2608656508       -4.8077520436      -17.4087715475
 H         6.7681023963       -4.7976459687      -16.5891872730
 H         8.1569465010       -4.1191929282      -15.8948178160
 H         8.5156324708       -2.4250520302      -18.8772059476
 H         9.3937753902       -2.0739478500      -17.2809100454
 H         8.1496023447       -0.9634312465      -17.9971910902
 H         3.4117427461       -1.8763703333      -22.7518338587
 H         4.9695628790       -2.4053356682      -23.5806830748
 H         4.1638686093       -0.7934544450      -23.8344959258
 H         6.3691257009        0.2109165778      -23.6370041028
 H         7.3069089234       -0.7821766308      -22.6572182138
 H         6.7341876845        0.9144144662      -22.1224746067
 H         4.4933752464        4.1692150467      -17.8034041938
 H         3.1689266478        4.5533255046      -16.8028950474
 H         3.9516375536        5.8369673546      -17.8835659195
 H         0.9377883649        5.1689769709      -18.2270542231
 H         1.1114265724        3.6134919920      -17.7617316459
 H         0.6102050901        3.8831324047      -19.5578059488
 Na       -7.9043483826       -1.0855828924       -5.8000908854
 Na        5.2450866195        0.0130894754      -18.2893644636
