232

 C         2.5136035372        6.5561686776      -20.2214597597
 C         3.1939550182        5.1842835359      -20.3154967587
 O         3.9749019300        4.7507953841      -21.1077169164
 C         2.8029201456        4.1496898634      -19.0489733960
 C         3.4278734475        2.7459119045      -19.4273657302
 O         4.4318624502        2.2614030983      -18.9345859012
 C         2.7304933160        2.1070083902      -20.7119016586
 C         3.7925389430        1.3176723516      -21.5223456560
 C         4.1210399823       -0.1142430817      -21.0399335941
 O         3.5123884583       -0.7843588513      -20.2702861808
 C         5.1403889588       -0.8593876364      -21.9123532574
 C         5.9041626999       -1.6918084060      -20.8764896225
 O         6.6916562239       -1.1205825123      -20.1279498726
 C         5.7668396467       -3.2141614389      -20.8791488925
 C         6.4514539386       -3.8428329145      -19.6520910081
 C         6.1390594578       -3.0697757492      -18.3592219732
 O         5.0254140908       -2.6039438859      -18.1833870046
 C         7.2627553529       -2.7829889839      -17.3648568370
 C         6.5882130118       -1.9205632725      -16.1624825644
 O         6.1588137875       -0.8326382004      -16.3731423934
 C         6.5285263589       -2.3897142572      -14.6920911903
 C         5.0212833312       -2.3154200384      -14.2201844147
 C         4.3662473349       -3.6548200437      -14.2951290444
 O         4.9443137922       -4.5730116807      -14.9180901272
 C         3.0460269716       -3.8975107970      -13.5226812043
 C         3.2031005378       -3.7580213024      -11.9628403066
 O         3.9963949044       -2.9037710442      -11.6319327523
 C         2.5074161033       -4.8140956073      -11.0772830711
 C         2.4700724700       -4.3526480008       -9.6042450694
 C         1.4535101885       -5.0658256729       -8.7135489369
 O         0.8108162413       -5.9563563711       -9.1517171318
 C         1.1026003911       -4.4394877824       -7.2788637966
 C         0.4294939368       -3.0418715214       -7.5656027247
 O         0.0131702744       -2.7801582253       -8.6988377864
 C         0.2067898709       -2.0720473646       -6.3586587173
 C        -0.7744694401       -0.9021889269       -6.5615522567
 C        -2.2279448957       -1.3401980826       -6.4538946736
 O        -2.6074503352       -2.4248403143       -6.0333302292
 C        -3.4029438695       -0.2131828277       -6.6369915621
 C        -4.7444849446       -1.0392466677       -6.8820411305
 O        -5.7804202476       -0.8269374104       -6.2678712708
 C        -4.6077400260       -2.2587480488       -7.9358037022
 C        -5.9549745132       -2.5422460061       -8.4751665470
 C        -6.7112077509       -1.3024900283       -9.0979349176
 O        -6.2548775198       -0.1916719505       -9.1931165622
 C        -8.0970672179       -1.7352574740       -9.7789676036
 C        -8.8251193409       -2.8076878298       -8.7909059941
 O        -8.9988671190       -2.6678312948       -7.5974954549
 C        -9.6087609185       -3.9699817466       -9.5284911762
 C        -9.8375592759       -5.2162976537       -8.6419508357
 C        -8.5487617724       -6.0754780564       -8.3969999642
 O        -7.4986478324       -5.8781001554       -8.9866384026
 C        -8.6493367566       -7.3022155390       -7.3485933347
 C        -8.4123198182       -6.5988330675       -5.9391119720
 O        -7.3722977740       -6.7325554048       -5.3704659772
 C        -9.6256168170       -5.9103176542       -5.2512316224
 C        -9.2523064430       -5.2660366498       -3.9156443363
 C        -8.2790985365       -4.0502801943       -4.3018879492
 O        -8.5428417734       -3.3542189401       -5.2462480129
 C        -7.0033592841       -3.8688321537       -3.4289738805
 C        -7.1132695163       -2.4492828923       -2.7665847877
 O        -7.2804808369       -1.4465550889       -3.4620927809
 C        -6.9441807732       -2.1678577178       -1.2418048716
 C        -8.2686927952       -1.5862059936       -0.8101958170
 C        -9.5315917785       -2.2787240425       -1.2575659870
 O        -9.4847054080       -3.1151657857       -2.1345256346
 C       -10.8941193198       -1.9208305009       -0.6001266998
 C       -11.5992685340       -0.9234028573       -1.5652135394
 O       -11.9112936518        0.1819042340       -1.2228001841
 C       -12.0334454966       -1.4962905548       -2.9325697223
 C       -12.0149062752       -0.3400548556       -3.9296728677
 C       -10.5688684597       -0.0163862921       -4.4218965865
 O        -9.7174785560       -0.9146756975       -4.5103367673
 C       -10.1630143706        1.4810309202       -4.8076178929
 C       -10.2675415283        1.3845096540       -6.4484326903
 O        -9.3487141823        0.8282044782       -6.9746914766
 C       -11.4987466853        1.9474950836       -7.1710368379
 C       -11.1303540215        2.8253732656       -8.3620970887
 C       -10.4218736452        4.1385368620       -7.8507891985
 O        -9.6155405199        3.9909937268       -6.9553376571
 C       -10.7559160970        5.4844974460       -8.4551422946
 C       -10.4661720732        5.4119762525      -10.0060051941
 O       -10.6250339670        4.3087135748      -10.6096209720
 C        -9.9891401617        6.6534987905      -10.7671449031
 C       -12.2851810008        5.7779149197       -8.3655633061
 C        -9.9485744816        6.6687585829       -7.7291283614
 C       -11.2187575014        2.5023395877       -4.3626277449
 C        -8.6764705918        1.9262542949       -4.3425540616
 C       -11.7922031208       -3.1991801195       -0.4532975382
 C       -10.8809699029       -1.3202334051        0.7871078493
 C        -6.7694403403       -5.0026148300       -2.4501742327
 C        -5.7123994436       -3.7109383033       -4.2206800673
 C        -9.9081901204       -8.0982365121       -7.5310818597
 C        -7.4243415228       -8.3383092322       -7.4445845413
 C        -8.9452752172       -0.4390626772       -9.9329471647
 C        -7.7966982841       -2.4561260027      -11.1545011979
 C        -3.4946328997        0.6702573559       -5.3231105405
 C        -3.1984837980        0.7305772451       -7.8625813311
 C         0.0855042134       -5.5078155324       -6.6907658729
 C         2.3177310826       -4.4158046222       -6.3989665666
 C         1.9949438637       -2.8083234112      -13.9960970488
 C         2.5032208020       -5.3095473945      -13.9040524287
 C         7.5977597891       -4.2066343885      -16.9235748776
 C         8.4350731806       -1.9743763684      -17.9295934694
 C         4.3250533085       -1.6136824122      -23.0203016520
 C         6.2069339563       -0.0259109174      -22.5311943451
 C         3.5397033278        4.8571849237      -17.7932098379
 C         1.3245931989        4.3341838824      -18.7578079508
 H         2.8693144833        7.3297266912      -20.8832801685
 H         2.4865568202        7.0269917511      -19.2094647596
 H         1.4973499187        6.4344726474      -20.4606118551
 H         2.2624376316        2.9276817246      -21.3126391477
 H         1.9190645666        1.5147224862      -20.3374974167
 H         4.6867698640        1.9134882500      -21.6743496924
 H         3.3113069264        1.0199855004      -22.4560753718
 H         5.9465953871       -3.6824937532      -21.8655119251
 H         4.7624406800       -3.5059742029      -20.7760380578
 H         7.6116249193       -3.8072612997      -19.8948598557
 H         6.1283830718       -4.8300330383      -19.5895866565
 H         7.2345679930       -1.6897249104      -14.2242053408
 H         6.9557738929       -3.3988542809      -14.4667132517
 H         4.3436116975       -1.7257439336      -14.8787445368
 H         4.7897881554       -1.8069278358      -13.2952411802
 H         2.9384116268       -5.7563543483      -11.1327421265
 H         1.5165285181       -4.9286917778      -11.4576129139
 H         2.0695267181       -3.3193813225       -9.7150940997
 H         3.5449511520       -4.3149318095       -9.3299662001
 H         1.1676796087       -1.5388704540       -6.2779194446
 H         0.1315672335       -2.6520636917       -5.4378501063
 H        -0.6567122619       -0.6897506182       -7.6496607045
 H        -0.6875769862       -0.0538146592       -5.8021290468
 H        -4.2458302761       -3.1724979705       -7.4712801155
 H        -4.0532280074       -1.8277919426       -8.7524565297
 H        -6.7022159890       -2.7542424690       -7.6772137442
 H        -5.8376266971       -3.3720538377       -9.1832309356
 H        -9.0220269073       -4.2346133081      -10.3615143248
 H       -10.6089904954       -3.5876128622       -9.8193579850
 H       -10.4812181266       -5.9313907655       -9.1454532891
 H       -10.1979883236       -4.9709171117       -7.6556615037
 H       -10.4236452367       -6.7124575694       -5.0788475100
 H       -10.1750700434       -5.1290348707       -5.8341537967
 H        -8.8490296296       -6.1326323203       -3.2910278731
 H       -10.1500204386       -4.9532669478       -3.3700285753
 H        -6.1879221413       -1.4418460027       -0.9826485298
 H        -6.6704722752       -3.0279711719       -0.7572558227
 H        -8.2106941052       -0.6663180043       -1.3914501266
 H        -8.3698738567       -1.3471052925        0.2968268649
 H       -13.0400035244       -1.9104680933       -2.9275452151
 H       -11.3702466269       -2.3674496818       -3.1989729518
 H       -12.3627193790        0.4648212435       -3.4097673971
 H       -12.5690971883       -0.5010345494       -4.8406793359
 H       -12.3316076274        2.4081985349       -6.5950512695
 H       -12.0086505138        1.0383965137       -7.6625616100
 H       -11.9764640974        3.0067673239       -8.9893690185
 H       -10.4085681880        2.2537885506       -8.8909996828
 H        -9.7822118763        6.5035869994      -11.8041607161
 H        -9.0309451210        6.9365629022      -10.3431789362
 H       -10.7122487532        7.4170295234      -10.5714104793
 H       -12.6959328061        5.6282617051       -7.3399360175
 H       -12.8863837168        5.3077626620       -9.1082225565
 H       -12.3418079561        6.8804397774       -8.5307911503
 H        -8.9807730963        6.4424441839       -7.1956126122
 H       -10.5488222581        7.1987989844       -6.9506175933
 H        -9.5612779843        7.3455997373       -8.4620348640
 H       -10.9452358066        3.5015057530       -4.7134555746
 H       -11.2410324892        2.5276629736       -3.3247498224
 H       -12.2315470438        2.2925592957       -4.6485530446
 H        -8.2976643416        1.0741745494       -3.8421805905
 H        -8.7341075108        2.8081563228       -3.6727005731
 H        -8.1968668286        2.2779930400       -5.2363806316
 H       -12.7936484966       -2.9908245465       -0.1881452275
 H       -11.4523703685       -3.9877092275        0.2550989319
 H       -11.9423735539       -3.8742150848       -1.3514110983
 H       -10.5604072452       -2.1507441752        1.4757451812
 H       -11.9063510487       -1.0421316401        1.0622164317
 H       -10.2362503660       -0.4995787108        1.0265621306
 H        -6.3092341360       -5.7431260198       -3.0161496606
 H        -7.6531667636       -5.2948878534       -1.8659247608
 H        -6.0153663661       -4.7150735619       -1.7111850506
 H        -4.8862275533       -3.2389297229       -3.6435028927
 H        -5.9876052705       -3.1659768173       -5.1319184052
 H        -5.3337060871       -4.6014720872       -4.5893254925
 H       -10.6695950401       -7.9729750484       -6.7491101776
 H        -9.6810389674       -9.1535023416       -7.6578144758
 H       -10.4712053307       -7.8896549088       -8.4783321211
 H        -6.4724481040       -7.9248263000       -7.7448940730
 H        -7.7092050001       -9.0061856105       -8.2091721131
 H        -7.3603587900       -8.8350050304       -6.5143244231
 H        -8.3930847372        0.3851873858      -10.4119071692
 H        -9.3247814179       -0.3151054810       -8.9239440859
 H        -9.7352661557       -0.7321878535      -10.6115843252
 H        -8.7793329703       -2.5857912102      -11.5456235211
 H        -7.1981409015       -3.3519235673      -11.2646825168
 H        -7.2056065503       -1.7728532650      -11.7977856327
 H        -2.5534851898        1.0978048989       -5.2157225489
 H        -3.7772490117        0.0603805577       -4.4849204580
 H        -4.1080797940        1.5210857513       -5.4498184639
 H        -2.1719443470        0.9213231192       -8.1533510034
 H        -3.6694200541        1.6672097978       -7.5727636774
 H        -3.7065285352        0.3402167531       -8.6981511736
 H        -0.2350912516       -5.3663772862       -5.6403669052
 H         0.4059897924       -6.5735316852       -6.7001333209
 H        -0.9212051769       -5.4141659466       -7.1718367979
 H         1.9753476093       -4.4542513923       -5.3140345242
 H         2.7241682479       -3.4079870036       -6.4374732405
 H         3.1001398020       -5.1483054005       -6.7731748833
 H         2.1863448155       -1.7994379718      -13.5171813720
 H         0.9458327055       -3.2466540845      -13.8035342614
 H         1.8890348246       -2.7068192723      -15.0085814285
 H         2.9397533400       -6.1317552209      -13.3070992525
 H         2.7661219643       -5.5478505483      -14.9633015260
 H         1.4247687702       -5.2890702535      -13.8211126472
 H         8.1611971526       -4.7471643852      -17.6791227022
 H         6.7063637447       -4.8095225468      -16.7666066446
 H         8.2554086112       -4.2796305369      -16.0228805814
 H         8.8668621581       -2.3185316780      -18.8382509237
 H         9.1464094280       -1.8167310353      -17.0570999800
 H         8.0338032320       -1.0190941652      -18.1075448183
 H         3.3526650582       -2.0351661036      -22.5827537715
 H         4.9241968059       -2.3754187387      -23.5942084354
 H         4.0443359210       -0.8095978039      -23.6720643355
 H         5.9566274608        0.2732273364      -23.5690020148
 H         7.2072552516       -0.4739579265      -22.6661081596
 H         6.3179485532        0.9681834406      -22.0602529502
 H         4.3823476501        4.2475957091      -17.4412178748
 H         2.9114622823        5.0781452781      -16.9422172563
 H         3.9889762294        5.7730662770      -18.1609792534
 H         1.2293266044        5.4079721630      -18.5890326575
 H         0.9354872461        4.0050141605      -17.7324649334
 H         0.7244980466        4.0038560472      -19.5656064555
 Na       -7.9358927923       -1.0186238252       -5.7158667010
 Na        5.1019977759       -0.1106186083      -18.2375760729
