232

 C         2.6732027886        6.7303048433      -20.3351780338
 C         3.0172117250        5.2588806461      -20.3967121567
 O         3.5574863088        4.8395571195      -21.3975276445
 C         2.8013868238        4.2760856261      -19.0785612456
 C         3.0473580343        2.7290266133      -19.5123247508
 O         3.8503680063        2.0884391988      -18.8528878333
 C         2.5162522563        2.1446419448      -20.8352764722
 C         3.7063144801        1.6938323125      -21.7168997969
 C         4.0378069600        0.2492505797      -21.4504606179
 O         3.6095575958       -0.1798758847      -20.3713575144
 C         5.0935059881       -0.6199532453      -22.2905749280
 C         5.9296222734       -1.3951061808      -21.0423416121
 O         6.4238698978       -0.8417842238      -20.0995713247
 C         6.1026453442       -2.9012435925      -21.1342223069
 C         6.7738699904       -3.2925851749      -19.7174462291
 C         6.1485703887       -2.8090877053      -18.4741979634
 O         5.0003819152       -2.5623355494      -18.3630080474
 C         7.2629385501       -2.6777631114      -17.2349673516
 C         6.5491659332       -1.8170857249      -16.0962923878
 O         6.0916180427       -0.7164907809      -16.3703502811
 C         6.6951351795       -2.3385900671      -14.6802947648
 C         5.2676110738       -2.2820153529      -14.0725782694
 C         4.5831361309       -3.7121082940      -14.3079762960
 O         5.0818405225       -4.5410175119      -15.0642460576
 C         3.1476974646       -3.8960664882      -13.6021240241
 C         3.3446161766       -4.0182105769      -12.0641203011
 O         4.1747880181       -3.3255807424      -11.4312486889
 C         2.4152646254       -4.9857807531      -11.3122176028
 C         2.5075354828       -4.6441599789       -9.7425582806
 C         1.5641233198       -5.4417486333       -8.8607719765
 O         1.2199727317       -6.5092550355       -9.3047643062
 C         0.9813453576       -4.7569481910       -7.5017103429
 C         0.2758563566       -3.3783095623       -7.8358947239
 O        -0.1191335552       -3.1521843376       -8.9648440628
 C         0.3668887895       -2.3106373125       -6.8106470891
 C        -0.5616238564       -1.1048821758       -6.8684909095
 C        -2.0871275741       -1.5519399919       -6.6373143685
 O        -2.3295656921       -2.6680282300       -6.1577806030
 C        -3.2358104585       -0.5173947547       -6.9308913126
 C        -4.6762469883       -1.1767825329       -6.7431562949
 O        -5.4784596239       -0.7083853415       -5.9709385017
 C        -4.8864485664       -2.4016958627       -7.7115520371
 C        -6.2622206329       -2.6429215385       -8.3793722823
 C        -6.9250212228       -1.4384430530       -9.0833921908
 O        -6.5466183480       -0.3152705791       -8.9501958842
 C        -8.3028176998       -1.7914780711       -9.8075049870
 C        -9.2293755315       -2.8998776180       -9.0538310719
 O        -9.6296584921       -2.6082656089       -7.9342495908
 C        -9.3141921576       -4.3038316644       -9.6425547754
 C        -9.6329557923       -5.4787960894       -8.6894481148
 C        -8.3952502086       -6.2998009115       -8.1267719204
 O        -7.2985414684       -6.1618579927       -8.6670430949
 C        -8.5327212817       -7.3189147303       -6.9377185753
 C        -8.2385792702       -6.5881400798       -5.6260704010
 O        -7.1577349586       -6.6375611324       -5.1030166156
 C        -9.4760077228       -5.7896538967       -4.9368748490
 C        -8.8430663153       -5.0224343542       -3.7759940845
 C        -7.8426424166       -4.0313957206       -4.2794813949
 O        -7.9911029489       -3.5396243894       -5.3828518640
 C        -6.8449641552       -3.6432978218       -3.1981289338
 C        -7.3240676371       -2.0193305063       -2.9292560540
 O        -7.6887593827       -1.2927432205       -3.7702040671
 C        -7.2030199832       -1.5135243145       -1.4247263575
 C        -8.5069699952       -1.0049130246       -0.8229983807
 C        -9.5131652411       -2.1294439786       -0.9938575699
 O        -9.2463345301       -3.0834359566       -1.7106672969
 C       -10.8695300147       -2.0503680309       -0.3005921621
 C       -11.6798899594       -0.9031878449       -0.9681554644
 O       -11.9883593096        0.1005995342       -0.3914777385
 C       -12.0055936064       -1.2294702683       -2.4708750528
 C       -11.8858686547        0.0927034232       -3.3298198897
 C       -10.9133180354        0.0272300867       -4.4642861505
 O       -10.6326265910       -0.9941286120       -5.0762189244
 C       -10.3334205655        1.4044296362       -4.8770847355
 C        -9.9714852007        1.3905363590       -6.4085389527
 O        -8.7992293368        1.0776127805       -6.7646257862
 C       -11.0240631230        1.5679091625       -7.4506792568
 C       -10.9816767122        2.6941084922       -8.5119154156
 C       -10.6127284225        3.9996719695       -7.7721652744
 O        -9.9219480154        3.9001684363       -6.7627930937
 C       -10.9053263180        5.4754632862       -8.3234610512
 C       -10.6370346759        5.5764291972       -9.9493075559
 O       -10.4247606451        4.5427937052      -10.5808997848
 C       -10.8258209269        6.8714330428      -10.5864572092
 C       -12.4083305449        5.7560467861       -8.0072885704
 C        -9.9795995267        6.4318047291       -7.5748068202
 C       -11.2352153051        2.6333847716       -4.5246504521
 C        -9.0184925948        1.4759961494       -4.0127125805
 C       -11.6960527936       -3.2694138883       -0.3541933468
 C       -10.6463285255       -1.6996665724        1.2748371669
 C        -6.8038930535       -4.5109649922       -1.8326096600
 C        -5.4469092311       -3.5433564051       -3.8261035405
 C        -9.9022419966       -7.9814255187       -6.7636681496
 C        -7.4377882819       -8.4650326843       -7.1464135980
 C        -9.0528977535       -0.4468192333      -10.0280579251
 C        -7.7696751936       -2.4106382582      -11.1656253822
 C        -3.1122469657        0.7491850595       -5.9728896069
 C        -3.1036355917       -0.0710514031       -8.3736742919
 C        -0.1800138605       -5.6535931661       -6.9643968242
 C         2.2183532421       -4.6701017180       -6.5848081530
 C         2.2888234352       -2.6593104148      -13.9285962124
 C         2.5132300935       -5.1711651141      -14.2602028913
 C         7.7508506830       -4.0671424822      -16.8580279133
 C         8.4548053989       -1.8366277940      -17.6451346158
 C         4.2957052155       -1.6258331629      -23.0933562361
 C         6.0507184732        0.1503378608      -23.2556233626
 C         3.9579907653        4.5880598955      -18.0803333468
 C         1.3689354989        4.5283845918      -18.5336477266
 H         3.4776433245        7.2370475030      -19.9313351458
 H         1.7982552897        7.1920701416      -19.9436124409
 H         2.6298308385        7.0032621818      -21.3324250185
 H         1.9389552127        2.9170579542      -21.3970636308
 H         1.8741287896        1.2728463495      -20.6484023801
 H         4.6201576704        2.3117789482      -21.4375428859
 H         3.4961195789        1.9181345278      -22.7850451400
 H         6.7156844681       -3.1628814471      -21.9827011182
 H         5.1599305350       -3.5410392520      -21.2623536153
 H         7.8212289787       -3.2522505368      -19.8001650355
 H         6.5539348298       -4.4252879883      -19.6742800593
 H         7.3641052394       -1.8085171758      -14.0085664508
 H         6.9774991053       -3.3939330379      -14.7918800460
 H         4.7039038758       -1.5258610227      -14.5707282143
 H         5.1623125660       -2.0458763852      -12.9967154621
 H         2.6499461398       -6.0904760948      -11.3991287924
 H         1.4252434524       -4.9280123269      -11.7260667190
 H         2.2625210596       -3.5820281206       -9.7136028058
 H         3.5838946107       -4.6886130106       -9.5122813013
 H         1.4282711191       -1.9778109632       -7.0064646384
 H         0.4577181083       -2.7270396458       -5.7892957647
 H        -0.5815328819       -0.6684980913       -7.8828620584
 H        -0.3036368253       -0.4055503997       -6.1187114368
 H        -4.6727328166       -3.2119569758       -7.0199816265
 H        -4.0568992633       -2.4102350017       -8.4081461412
 H        -7.1497456988       -2.9270925794       -7.7206292960
 H        -6.1572118378       -3.4073960045       -9.2303484562
 H        -8.3206556749       -4.6421417239      -10.1021143154
 H       -10.1336471338       -4.2434589130      -10.4009710446
 H       -10.2566732155       -6.2628925082       -9.1645969942
 H       -10.2531221201       -5.1900527124       -7.8190952840
 H       -10.1683705652       -6.5479157238       -4.5379331435
 H       -10.0532372139       -5.1059282653       -5.6335342125
 H        -8.2711637185       -5.7374293110       -3.1809755464
 H        -9.6709322254       -4.6972308640       -3.1381663789
 H        -6.4793845435       -0.6769375358       -1.4469019837
 H        -6.7846565346       -2.4321162786       -0.8411616322
 H        -8.9334356106        0.0135198886       -1.1462814421
 H        -8.4015254313       -0.8287307574        0.2412099392
 H       -13.0417193429       -1.6174409298       -2.4983722847
 H       -11.3298000356       -1.9655573251       -2.8884689995
 H       -11.7338660055        1.0319558772       -2.7888043635
 H       -12.8582786344        0.2534452072       -3.7573691787
 H       -11.9973639137        1.7634554995       -6.8483508922
 H       -11.0880545446        0.6051378130       -8.0122701231
 H       -11.9669575733        2.7721076938       -9.0852473464
 H       -10.0553141219        2.6688551557       -9.1663672661
 H       -11.0596826325        6.7248337341      -11.5727049105
 H        -9.9180002913        7.4138856175      -10.5657138962
 H       -11.5605693122        7.4246108589       -9.9378270435
 H       -12.4725599618        5.6956280929       -6.9283787647
 H       -12.9379242015        4.8730150107       -8.2991488963
 H       -12.8491607259        6.7395841400       -8.4291776942
 H        -8.9193796458        6.1536129483       -7.5858312259
 H       -10.3344910086        6.5498831606       -6.5443216801
 H       -10.0150365808        7.5208769233       -7.9465433064
 H       -10.6472982832        3.4968118357       -4.8410960283
 H       -11.3671530838        2.6923042806       -3.4650159054
 H       -12.1497062335        2.5952861915       -5.1311086344
 H        -9.1125419301        2.3216389968       -3.3439442709
 H        -8.2134276512        1.5944524211       -4.7025794085
 H        -8.9520923689        0.5060240181       -3.4501348718
 H       -12.7129512257       -3.1943824371       -0.0696201981
 H       -11.3679026284       -3.9886063898        0.3116955833
 H       -11.7958007890       -3.8025533137       -1.2668343329
 H        -9.6084144277       -1.9710733074        1.5533722012
 H       -11.2978451599       -2.3056173891        1.8373845742
 H       -10.7243009265       -0.6597947312        1.5897413229
 H        -6.8093537994       -5.5877206800       -2.0147661308
 H        -7.6227879301       -4.3393923496       -1.1696756576
 H        -5.8609267856       -4.2467054262       -1.3411387785
 H        -4.7259524204       -3.3122191853       -3.1090813936
 H        -5.3214769706       -2.7132990584       -4.5282092951
 H        -5.2221174619       -4.4797797665       -4.2878622405
 H       -10.7010124135       -7.3093058608       -7.1119090524
 H       -10.1248691999       -8.1878630549       -5.7267782333
 H        -9.9459388480       -8.8706942200       -7.4406010630
 H        -6.4489373976       -8.0882826403       -7.1234338601
 H        -7.6822586068       -8.9286208280       -8.1047507494
 H        -7.6127095685       -9.2431873283       -6.4074812249
 H        -8.2616371594        0.2807459076      -10.3509164646
 H        -9.3024890026       -0.1367074088       -8.9949464014
 H        -9.9258578369       -0.5883298745      -10.6807690811
 H        -8.5638286517       -2.7502993334      -11.8530874364
 H        -7.1246982176       -3.2330073036      -10.9442423293
 H        -7.3486867328       -1.7129769191      -11.7732496820
 H        -2.6933208445        1.6836336055       -6.3195442652
 H        -2.5136141147        0.5020439299       -5.1215748310
 H        -4.0939229198        0.8753802272       -5.5698172912
 H        -2.1523268385        0.3195462182       -8.4430271611
 H        -3.8812073967        0.5560571288       -8.7431578284
 H        -3.0831336506       -1.0056644842       -8.9648707552
 H        -0.6349538707       -5.3869608848       -5.9142510065
 H        -0.0041284659       -6.6822982250       -7.0037275874
 H        -1.0156876250       -5.6426694321       -7.6536751443
 H         1.9298329157       -4.8661949402       -5.5278868056
 H         2.7209421000       -3.7906857292       -6.8045508878
 H         2.8251649734       -5.6574046775       -6.7205290694
 H         2.5173859970       -1.8164451328      -13.2881717276
 H         1.2650140302       -2.7744026556      -13.5915946026
 H         2.4043937198       -2.3694228726      -15.0171557222
 H         3.2617743975       -5.7943026655      -14.7524317440
 H         1.8216040934       -4.7747691976      -14.9925141600
 H         1.8583937600       -5.8420756351      -13.6873720949
 H         7.9357936601       -4.6608804275      -17.8484185450
 H         7.0094897615       -4.6407704475      -16.3256687252
 H         8.7056877865       -4.0864383690      -16.2489910420
 H         9.2320364816       -2.3785326664      -18.1851989119
 H         8.9372308883       -1.4897507922      -16.7559594146
 H         8.1351102723       -0.9685869448      -18.2217576971
 H         3.3795518988       -1.9002248654      -22.5655203964
 H         4.9840216694       -2.5113632030      -23.4026931364
 H         4.1422580033       -1.0952397837      -24.0263993663
 H         5.5484000511        0.3515451334      -24.1620819624
 H         6.9438537508       -0.2990998266      -23.5553310497
 H         6.5747334236        1.0501666181      -22.8318264926
 H         3.6684014687        4.8689786801      -17.1122823862
 H         4.6399555173        5.3529795079      -18.4118514353
 H         4.6271863483        3.7352331041      -17.8185301400
 H         1.2888239795        5.5305842496      -18.2936004019
 H         1.3684314342        3.8935013541      -17.6730986485
 H         0.4641556554        4.3995159045      -19.1359016861
 Na       -8.3226995189       -1.2183918353       -6.0750144846
 Na        5.0290460415        0.0763033156      -18.4903514725
