232

 C         2.6556661245        6.6938537746      -20.3076354185
 C         3.3346640039        5.3858353382      -20.5566399916
 O         3.9653732214        4.9911620873      -21.5053312665
 C         3.1290664829        4.2856867314      -19.2612578032
 C         3.2368270630        2.8123618517      -19.5923821194
 O         4.0917030976        2.2026061259      -18.9708755321
 C         2.2761460689        1.9631663238      -20.5113396561
 C         3.0873593820        1.4239303530      -21.7048538835
 C         3.8157726630        0.1413912329      -21.3960755096
 O         3.3488786363       -0.6200837566      -20.5553648788
 C         5.0042476684       -0.4363263240      -22.3143972222
 C         6.0010356993       -1.1735610607      -21.4265957770
 O         6.5700701390       -0.4947234878      -20.6032847586
 C         6.3492857352       -2.6607506624      -21.3086003005
 C         7.0694596472       -3.0357983409      -19.9396579788
 C         6.4118800007       -2.4680538209      -18.6936103280
 O         5.1353230825       -2.3235783893      -18.7898987559
 C         7.1982100335       -2.3670851089      -17.2979310142
 C         6.3216234662       -1.6291541721      -16.1756038464
 O         5.3786980058       -0.9373107142      -16.5301673578
 C         6.6886787600       -1.8317261106      -14.6893906852
 C         5.4010605196       -2.1918034169      -13.9026767901
 C         4.8478781144       -3.5432747400      -14.2467977113
 O         5.3325809801       -4.1751070611      -15.1408024856
 C         3.4056159717       -3.9244720855      -13.5964243249
 C         3.4544991171       -4.2644602216      -12.0809045514
 O         4.3958178149       -3.8257882051      -11.5133739165
 C         2.3154209112       -4.8827841765      -11.4098837045
 C         2.2788826553       -4.5720207209       -9.8942137498
 C         1.4432593386       -5.5380518617       -9.0830054299
 O         1.1156240886       -6.6198577880       -9.5600988626
 C         0.8764468962       -5.0830337115       -7.7433656587
 C         0.1665016320       -3.6644828724       -8.1207114859
 O        -0.2461472102       -3.2578550652       -9.1880484636
 C         0.2066282959       -2.5533973450       -6.9632089249
 C        -0.8106666364       -1.4442587589       -7.2062864733
 C        -2.2556177183       -1.6920606916       -6.7825740812
 O        -2.4847288032       -2.6598153527       -6.1354878032
 C        -3.4252148418       -0.6640131476       -7.1656167156
 C        -4.8166936767       -1.4930958077       -7.1717971990
 O        -5.7548538084       -1.0278222240       -6.5054156356
 C        -4.7450139909       -2.7899783712       -7.9423830957
 C        -6.1518828866       -3.2020881385       -8.2915435129
 C        -6.7527618472       -1.9513442373       -9.0432750112
 O        -6.1289156244       -0.9331425303       -9.2185767424
 C        -8.1897028173       -2.0464919601       -9.6913683247
 C        -9.0196753549       -3.0841676570       -8.7926403605
 O        -9.1784544259       -2.9857023167       -7.5793531969
 C        -9.5704022834       -4.3548917207       -9.5033606810
 C        -9.7892876924       -5.4796469419       -8.4488133773
 C        -8.4619963326       -6.2242334053       -8.1349533633
 O        -7.3426687242       -5.8986566638       -8.4600765550
 C        -8.4895560927       -7.4298733465       -7.0621036273
 C        -8.1461629091       -6.7039362332       -5.6801118132
 O        -7.0007175394       -6.6174168957       -5.3429919421
 C        -9.1664984308       -6.0492398326       -4.7176882076
 C        -8.4406060517       -5.3195135603       -3.5813626147
 C        -7.6028826989       -4.1344388125       -4.1255537216
 O        -7.7652589785       -3.9189793398       -5.3166181341
 C        -6.6805061106       -3.1392865594       -3.1558138678
 C        -7.5098282452       -1.7325463868       -2.7266114623
 O        -8.0513336478       -1.0066638214       -3.5838741595
 C        -7.2827973907       -1.0738159218       -1.3247445253
 C        -8.6000610008       -0.7237342635       -0.5926836367
 C        -9.5535767975       -1.9604011494       -0.6357530461
 O        -9.2122147754       -2.9389359388       -1.2399656752
 C       -10.9098740602       -1.8439493627        0.1363110919
 C       -11.6070980470       -0.7769079285       -0.7920732371
 O       -11.6921634626        0.3169797969       -0.2821551062
 C       -12.1677419486       -1.0234274261       -2.2159379763
 C       -12.0108588211        0.2547411122       -3.0567776136
 C       -10.9615679626        0.1690608949       -4.1587643190
 O       -10.3672535278       -0.8122889105       -4.4835512034
 C       -10.6488180026        1.5582469790       -4.8785604167
 C       -10.3693861268        1.1376007129       -6.3479829855
 O        -9.4409669423        0.4056384284       -6.6383339898
 C       -11.2532516118        1.6927869376       -7.4547037726
 C       -10.7063535668        2.6899364555       -8.4110272824
 C       -10.2291154061        3.9772918490       -7.6668747397
 O        -9.4041234330        3.8610725548       -6.8068995954
 C       -10.8475365599        5.3214408080       -8.2386317087
 C       -10.6319483133        5.4510245149       -9.7592983945
 O       -10.0414710735        4.6658327428      -10.4557616901
 C       -11.4792280029        6.6209120932      -10.4269884886
 C       -12.2801674235        5.2723072913       -7.6963071237
 C       -10.2250356788        6.5903026502       -7.4251793199
 C       -11.7172920052        2.6839530601       -4.6036999926
 C        -9.1681762014        1.9737826514       -4.2606394532
 C       -11.6514339132       -3.2961755117        0.1250555308
 C       -10.8763331181       -1.4510974571        1.5778749427
 C        -6.3337704723       -4.0799139847       -1.9368116512
 C        -5.3878053865       -2.5841911279       -3.7419022374
 C        -9.8982433321       -8.0320094211       -6.8806916954
 C        -7.4628479562       -8.5327761076       -7.4610952396
 C        -8.8363110366       -0.6305099494       -9.6441497685
 C        -7.9347871169       -2.4755442596      -11.1523905948
 C        -3.3712333705        0.4573385531       -6.1974831798
 C        -3.0379546125       -0.1671351946       -8.6232107838
 C        -0.2317114631       -5.9296263659       -7.1011957137
 C         2.1154832137       -4.8119954647       -6.6502382776
 C         2.5502534774       -2.6514316091      -13.5849051672
 C         2.7108448031       -5.0314861137      -14.4641886871
 C         7.5179992489       -3.8322722849      -16.9645304992
 C         8.4762280425       -1.4631385084      -17.4207450225
 C         4.2191541054       -1.4613069993      -23.2995743757
 C         5.7769317456        0.7889366653      -23.0750918042
 C         4.0716300778        4.6865051089      -18.1040373357
 C         1.6013930323        4.3537118812      -18.6529826672
 H         2.0019517622        6.6728322890      -19.4916180833
 H         2.0506260917        6.9706996687      -21.0949971095
 H         3.2613018619        7.5516526059      -20.1350163194
 H         1.5348956311        2.6327372462      -21.0223646328
 H         1.7912910363        1.1341246305      -19.9775600187
 H         3.7555238263        2.2958852860      -21.9946529827
 H         2.4738236704        1.3120488732      -22.6218706708
 H         7.0933508035       -2.8659244689      -22.1474869722
 H         5.4908755434       -3.3003640603      -21.3556320093
 H         8.2057559264       -2.8418520763      -20.0993620310
 H         7.0812708529       -4.0491543279      -19.8207760508
 H         7.0487002949       -0.8689766775      -14.2937969292
 H         7.4522671982       -2.5787544530      -14.4831481880
 H         4.6069836316       -1.6795415373      -14.4017960600
 H         5.3675496879       -2.0646974086      -12.8253881665
 H         2.3838028984       -5.9932989015      -11.4222638271
 H         1.3025932125       -4.7226354047      -11.8725632178
 H         2.0636388147       -3.5228958576       -9.6680627515
 H         3.3243137083       -4.5701190815       -9.6361025799
 H         1.2483722314       -2.0830749576       -6.8779562826
 H         0.1011579051       -2.9470975531       -5.9582151054
 H        -0.7753965091       -0.9929835653       -8.1878117452
 H        -0.5802454318       -0.6606670961       -6.5258439517
 H        -4.1573408685       -3.4563835648       -7.3129245975
 H        -3.9783112695       -2.6154298393       -8.6552296259
 H        -6.8663972233       -3.2977457996       -7.4561113386
 H        -6.4277071348       -4.0117338848       -8.9873732197
 H        -8.8411280025       -4.7305867062      -10.2869987390
 H       -10.5501811314       -4.1120637014      -10.0508128233
 H       -10.6227186935       -6.2037696303       -8.6708688303
 H       -10.2510563560       -5.0772202817       -7.5283400958
 H        -9.8554307707       -6.8729578196       -4.4326495056
 H        -9.6969767480       -5.3120085344       -5.3733471252
 H        -7.7852867846       -6.0803422497       -3.0852964268
 H        -9.1705901951       -4.9480857555       -2.9083206703
 H        -6.6193074250       -0.1659186199       -1.6731673543
 H        -6.6738635657       -1.7949869645       -0.7736416061
 H        -9.2051747754        0.1962494560       -0.8130985578
 H        -8.3988377028       -0.4627468756        0.4637624763
 H       -13.1893452182       -1.2651135730       -2.0209973623
 H       -11.5925449635       -1.8782614835       -2.6050933641
 H       -12.0914134265        1.0966818180       -2.4165395015
 H       -12.9591612373        0.3978899374       -3.6777622319
 H       -12.1263849330        2.1336452206       -6.9143596318
 H       -11.7858685050        0.9070694356       -8.0739780677
 H       -11.3432657131        2.9944935605       -9.3067844890
 H        -9.7224711372        2.3389000239       -8.8717375488
 H       -12.5237110205        6.2378673306      -10.3115027524
 H       -11.2239685043        6.6182557225      -11.4809912323
 H       -11.4319396826        7.5569449079      -10.0507638793
 H       -12.1240212613        5.3653410453       -6.5679104939
 H       -12.7822445726        4.3627228335       -8.0852857525
 H       -12.7947813368        6.1212305714       -8.0233496251
 H        -9.2676429004        6.8768361598       -7.9272609600
 H        -9.8964995081        6.3503040386       -6.3515477315
 H       -10.9376806848        7.3663874115       -7.2790970001
 H       -11.3084765841        3.5512980878       -5.1023000188
 H       -11.7217034737        2.8134178306       -3.5362804511
 H       -12.7227094066        2.3567113477       -4.8153054906
 H        -8.8791308391        1.2242130009       -3.5698432480
 H        -9.3398112636        2.9958162566       -3.8633337895
 H        -8.4793135267        2.1209720725       -5.0714353828
 H       -12.5780774716       -3.3789401389        0.6005499459
 H       -11.1090684214       -4.1098311543        0.5055330103
 H       -11.8809074027       -3.6908272661       -0.7991563205
 H       -10.5753391145       -2.3476582801        2.1313387972
 H       -11.8285168261       -1.1250288120        2.0259251003
 H       -10.2442581870       -0.6137986440        1.6731845317
 H        -6.2613845252       -5.0987209023       -2.1766612415
 H        -7.1523077500       -4.0999434271       -1.1752572627
 H        -5.4028433149       -3.7491179879       -1.4643895886
 H        -4.9039406526       -1.9756237577       -2.9415881672
 H        -5.6308027210       -1.8837666211       -4.4821975185
 H        -4.6635612438       -3.2654279424       -4.1341385622
 H       -10.6604451121       -7.2464782219       -6.9687876306
 H       -10.0079634579       -8.5101410147       -5.9102696186
 H        -9.9825750731       -8.8591506588       -7.6134594674
 H        -6.9100533527       -8.1709571969       -8.3227747297
 H        -7.8978908644       -9.4840890284       -7.5655162597
 H        -6.7630388740       -8.5776343825       -6.6729534781
 H        -8.0694184000        0.0148702800      -10.0964454301
 H        -8.9725777553       -0.3753006503       -8.5848614408
 H        -9.8079347318       -0.5946919417      -10.1356287423
 H        -8.8686034504       -2.6723132739      -11.5946806633
 H        -7.4530839028       -3.4314142964      -11.2329716462
 H        -7.3513171449       -1.7197656143      -11.7642526916
 H        -2.3812718029        0.7372260647       -6.0086024654
 H        -3.8450419131        0.3010790452       -5.2517471287
 H        -3.8583623702        1.3072295661       -6.5939361360
 H        -2.2797632176        0.5861731760       -8.4201571969
 H        -3.8598125054        0.2481720882       -9.2002980976
 H        -2.6330652397       -0.9805334504       -9.1380385027
 H        -0.6441965486       -5.4718830615       -6.2740911826
 H         0.0416973570       -6.9951493926       -6.7387086919
 H        -1.0537427901       -6.1100787113       -7.8566823262
 H         1.7462184707       -4.0142839955       -6.0096006616
 H         3.1467889352       -4.6117467213       -7.1756735733
 H         2.2526557613       -5.6795010121       -6.1122073184
 H         3.0765509561       -1.8611833580      -13.0159466101
 H         1.5386511285       -2.8437424994      -13.1363235846
 H         2.4812634677       -2.1459758015      -14.5274349717
 H         2.6274789204       -6.0120970238      -13.9827942651
 H         3.3155334377       -5.1901119933      -15.3702409147
 H         1.6926455179       -4.7888591605      -14.6968588249
 H         8.1254443852       -4.2945479013      -17.7358247487
 H         6.5911461116       -4.5151609996      -16.7325587811
 H         8.1798487114       -3.8059343858      -16.0638535605
 H         9.1543645134       -1.8929433827      -18.1252113080
 H         9.0807260406       -1.2984626681      -16.4707402502
 H         8.2285716609       -0.4998099574      -17.7669983005
 H         3.5427484014       -1.9591568283      -22.5461744842
 H         4.9668324062       -2.1995877753      -23.4328435305
 H         3.6948453295       -1.0047069157      -24.1659650481
 H         5.3365014249        1.3202645416      -23.9263197284
 H         6.6844462826        0.3092187887      -23.5228184157
 H         6.0781870399        1.5888113560      -22.4987350773
 H         4.8205581217        5.4686819151      -18.3779364349
 H         4.6879343433        3.9248608121      -17.7067476947
 H         3.6340317257        5.0152795597      -17.2091620938
 H         1.3953695134        5.2982286265      -18.0916809869
 H         1.3168848492        3.4787755300      -18.0574302327
 H         0.9636397272        4.3591661663      -19.4905404654
 Na       -8.1068694584       -1.4267593463       -6.0008996034
 Na        4.6854952996        0.0248674881      -18.7119765898
