232

 C       -14.6664793543      -14.2088260170       -0.6517510514
 C       -15.0253518226      -14.2659760637       -2.1693123489
 O       -15.0298935962      -13.2817736004       -2.8587533332
 C       -15.4212299209      -15.6970825346       -2.7780812325
 C       -15.2764003143      -15.6503690775       -4.3868274725
 O       -16.2217488283      -15.2057944049       -5.0378574836
 C       -13.9648233616      -16.0566713957       -5.0633682786
 C       -13.9359486455      -15.8154826294       -6.5841233550
 C       -14.1449438383      -14.3532059006       -6.8721078560
 O       -13.8700936203      -13.5245800791       -6.0752240311
 C       -14.8899233808      -13.9244349993       -8.2786185844
 C       -15.4974886374      -12.5099764863       -7.9440526825
 O       -16.6407854890      -12.3944982772       -7.5272614554
 C       -14.5245005518      -11.3064930964       -7.9302761424
 C       -15.0870050561       -9.9353381103       -7.5353491807
 C       -15.2268105565       -9.6329720027       -6.0923593289
 O       -15.3844395273      -10.4771020782       -5.2105928422
 C       -14.9786611278       -8.1738680014       -5.6213969152
 C       -13.4803719336       -7.8071857316       -6.0443035620
 O       -12.7520850946       -8.5543115095       -6.6971647136
 C       -12.9391192884       -6.4670647121       -5.5672434236
 C       -12.6223678824       -5.4618299130       -6.6317292215
 C       -13.1903344301       -4.1010644204       -6.2656458216
 O       -14.0352441980       -3.9284780754       -5.4248575209
 C       -12.6393897443       -2.8324644416       -6.9102239552
 C       -11.0875395365       -2.7480687592       -6.8695316176
 O       -10.4108111936       -3.4617474944       -6.2122268467
 C       -10.3740985539       -1.7530362300       -7.7925048408
 C        -9.3835607004       -0.8795153550       -7.1278221083
 C        -9.9808387477        0.4706528018       -6.7645359879
 O       -11.0845559775        0.8733539814       -7.2078716825
 C        -9.3503200728        1.2149343724       -5.5389725075
 C        -7.7670498077        1.3261561022       -5.6115996550
 O        -7.0905088702        0.3194697779       -5.5659061873
 C        -7.0665996056        2.7154217701       -5.8554049180
 C        -6.6711508643        2.6369400043       -7.2972539686
 C        -6.0736613607        3.9533303884       -7.8801320592
 O        -6.1527918880        4.9822561436       -7.3088733213
 C        -5.5793817171        3.9087353924       -9.3666406605
 C        -4.6511609638        2.7217574577       -9.5498401363
 O        -5.1253676503        1.6070776927       -9.6882700871
 C        -3.1292553678        2.9192150298       -9.2703524696
 C        -2.3475462849        1.8186188479       -9.9550007059
 C        -0.8394976106        2.0960446291      -10.2363277493
 O        -0.3986278097        2.4793592733      -11.3492677743
 C         0.1346003594        1.5141185170       -9.2438752140
 C         1.5629905680        2.0637116701       -9.4262416925
 O         2.5085734433        1.3488485779       -9.3912161620
 C         1.7484478367        3.5817898789       -9.5386473571
 C         2.6029799738        3.9748748492      -10.7559241525
 C         2.3269459470        5.5903246395      -11.2240073082
 O         1.3982543125        6.2709143581      -10.8504290388
 C         3.5296841845        6.0707288543      -12.2110288280
 C         3.4851019800        5.0315572208      -13.3746073357
 O         4.4934088414        4.3519792930      -13.5295742770
 C         2.2030580545        4.8550075412      -14.1279256447
 C         2.2328849792        5.6676000472      -15.4751687750
 C         3.0185257860        4.7547940201      -16.4547660387
 O         3.5224171352        3.6933095897      -15.9715893325
 C         3.3964879113        5.2049160520      -17.8462919235
 C         5.0229059230        5.0961518606      -18.0582166653
 O         5.4307892851        4.5204111743      -19.0668033173
 C         5.9903971301        5.7328193793      -17.0229927281
 C         7.4344676172        5.4927659227      -17.2774252059
 C         7.9792210744        4.0672966871      -17.2292118570
 O         7.4464116339        3.0640048554      -16.7537612680
 C         9.4213628594        3.7678510423      -17.7738566997
 C        10.5280188998        3.9029228849      -16.6017183266
 O        10.3327250686        4.7102867256      -15.6709538808
 C        11.6695221445        3.0880112649      -16.5931086381
 C        12.2572495345        3.0168855837      -15.1464434302
 C        11.5448858346        1.9290817433      -14.2358286325
 O        10.7864311805        1.1416006333      -14.7088584253
 C        12.0197141526        1.8219104373      -12.7037150958
 C        10.8211764383        1.1610619799      -11.8634485270
 O        10.9299158826        0.1188933167      -11.2046444838
 C         9.4621010891        1.8391165652      -11.9764115425
 C         8.4597120094        0.7252020421      -12.2734654171
 C         7.1409447746        1.1560809504      -12.9745717122
 O         6.8706029372        2.3594053088      -13.0970537663
 C         6.1238349182        0.0257227998      -13.3233262822
 C         6.3634092962       -0.2486233992      -14.9000025729
 O         5.9952536685        0.6208948941      -15.6846752487
 C         6.9876891864       -1.5133547455      -15.4225953263
 C         6.4025294893       -1.1856870927      -12.4354027935
 C         4.5429208982        0.4234492757      -13.1427842957
 C        13.1782887157        0.7340524323      -12.7079225878
 C        12.4579211811        3.1237816567      -12.0510742656
 C         9.3923490406        2.3814361880      -18.5166590567
 C         9.9181023934        4.8258073883      -18.9136479526
 C         2.8997803441        4.1322328435      -18.8883680862
 C         2.8913197587        6.7096688381      -18.2164149086
 C         3.2420554640        7.5354848370      -12.6997034744
 C         4.9093972646        6.2012238652      -11.5795969039
 C        -0.2785255878        1.8862760702       -7.7863528156
 C         0.2538786736       -0.0709919590       -9.3317243974
 C        -6.8862594943        3.5365820001      -10.2065088173
 C        -5.1557837364        5.3517292053       -9.7179750863
 C        -9.9708255197        2.6465343105       -5.5511098957
 C        -9.7835017098        0.5626419533       -4.2099761308
 C       -13.0756469966       -2.7964358649       -8.4930330818
 C       -13.1967076397       -1.5525405296       -6.1853691415
 C       -15.9526645653       -7.1383965869       -6.2399570747
 C       -15.0247459908       -8.1438758517       -4.0831089331
 C       -13.6638470438      -13.8193497441       -9.3338854295
 C       -15.9792528529      -14.9287307750       -8.6745288818
 C       -14.4925550934      -16.7356528662       -2.1762167474
 C       -16.9617926222      -15.9246829809       -2.4300925605
 H       -13.9033510284      -13.3838183231       -0.4254486694
 H       -14.3574381769      -15.1448378421       -0.2017885662
 H       -15.5176505243      -13.7991286526       -0.1544773077
 H       -13.8718589513      -17.0896021745       -4.8967606863
 H       -13.0866402397      -15.5975504150       -4.6192897005
 H       -14.6858949613      -16.5256351034       -6.9814112619
 H       -13.0089907041      -16.1899059727       -7.1027320668
 H       -14.0181959023      -11.2135185714       -8.8812824702
 H       -13.7165270319      -11.4841608691       -7.2589109914
 H       -16.1182188647       -9.7925716772       -8.0175248875
 H       -14.5849528740       -9.0765805319       -8.0497369575
 H       -12.0180535597       -6.7887101339       -5.0250192801
 H       -13.6427262272       -6.0268504471       -4.8233807599
 H       -12.9969526253       -5.7413187850       -7.6356371115
 H       -11.5378687180       -5.5749404596       -6.7490327152
 H       -11.1286367361       -1.1126218899       -8.3381892696
 H        -9.8929704374       -2.2546904242       -8.6203167896
 H        -8.4967630317       -0.6521540261       -7.7245506781
 H        -9.0070035860       -1.5018734790       -6.2501911461
 H        -6.1783343314        2.7165738193       -5.2933287510
 H        -7.6774402327        3.6929635969       -5.6202866542
 H        -7.5450728549        2.3614222509       -7.8599308984
 H        -6.0166900163        1.8024670368       -7.5670651879
 H        -2.9990085799        2.9552240205       -8.1772378618
 H        -2.7754654755        3.7915386650       -9.6250443659
 H        -2.8352915089        1.5943224230      -10.8974747909
 H        -2.2914429397        0.9604710023       -9.3013966235
 H         2.2252724784        3.9244540591       -8.6369566694
 H         0.8461891987        4.1221459540       -9.6525022105
 H         2.3481640156        3.3699007082      -11.6593690164
 H         3.6300514085        3.9935292124      -10.6355323309
 H         1.4045826098        5.1533806835      -13.4099992386
 H         1.9144594903        3.8070486565      -14.3589472743
 H         2.8652083472        6.5958216389      -15.3315825425
 H         1.1782897612        5.9316647308      -15.8062354130
 H         5.6602531608        5.3098607013      -16.0867571670
 H         5.7373943010        6.7769262162      -16.9976053958
 H         8.0039966569        6.1867684916      -16.6163303229
 H         7.6406660926        6.0143009170      -18.2569681890
 H        12.4253516365        3.4961204286      -17.3125745999
 H        11.6268894182        2.0787682399      -17.1456934075
 H        12.2676850891        3.9736569373      -14.6038776612
 H        13.3525117918        2.6771335527      -15.0781380240
 H         9.4652435753        2.5126260224      -12.8138905410
 H         9.1932817502        2.4923232668      -11.1455878055
 H         8.1648910844        0.2909855071      -11.2552006358
 H         8.9471851866       -0.1040893726      -12.6903738100
 H         8.1126173072       -1.3647443386      -15.6524202198
 H         6.5062025811       -1.7897819660      -16.4041809639
 H         6.8276400991       -2.3919383603      -14.7741206837
 H         5.9326940864       -2.1148481653      -12.8032806155
 H         5.9120062361       -1.0383371574      -11.4886353712
 H         7.4284834049       -1.3519532278      -12.2071201183
 H         4.4517645249        1.1529194714      -12.2238381361
 H         3.9471792079       -0.4544730175      -12.7801808425
 H         4.1171404564        0.9674043805      -14.0140268438
 H        14.0986586880        1.0744255040      -13.1786167581
 H        12.7388983510       -0.2215683438      -13.1220526124
 H        13.4445511369        0.4604346952      -11.6710484237
 H        13.3400477748        3.5652396221      -12.5130982406
 H        12.5009475888        2.8710137471      -10.9929895424
 H        11.6997051664        3.9125689032      -12.1677749233
 H         9.2450083750        1.6451065067      -17.7844271021
 H        10.2847993163        2.3053992698      -19.2128206659
 H         8.5407768918        2.4034674910      -19.1946467219
 H        10.2131410940        5.8141961968      -18.5133407311
 H         9.2373788552        4.9097657713      -19.7634099219
 H        10.7518590874        4.4513290262      -19.3413911383
 H         3.4945135938        3.2684325531      -18.6692736752
 H         3.0530255739        4.3360037044      -19.9528533543
 H         1.8546997190        4.0249671163      -18.7528397519
 H         3.1083018532        6.9833772357      -19.2372369724
 H         3.2337169593        7.4601555234      -17.4430577241
 H         1.7539916992        6.7050564427      -18.3111097698
 H         2.6657411980        8.0856522031      -12.0287923066
 H         2.7165758834        7.5433032116      -13.6523094168
 H         4.1991883107        8.0767553506      -12.8876800828
 H         5.7538715042        6.1935753915      -12.2695984572
 H         5.2390824158        5.4494848353      -10.7770840433
 H         5.0859594534        7.1288547366      -10.9636826194
 H         0.6095811071        2.4406334086       -7.5151930977
 H        -0.4430408542        0.9666913957       -7.0671795490
 H        -1.1037902471        2.6274577431       -7.5290494083
 H        -0.3364100837       -0.6381982868       -8.6653792008
 H         1.2599234446       -0.4056383851       -8.9602275424
 H         0.1060968183       -0.4481833198      -10.3385913367
 H        -7.0936731345        2.4893375459      -10.0049795712
 H        -6.6202851263        3.7409380622      -11.3281781890
 H        -7.7441345582        4.1623913003       -9.8617803849
 H        -5.6616424673        5.7647401972      -10.6296963920
 H        -4.1043828024        5.2882272155       -9.8793613542
 H        -5.3234400949        6.0305457166       -8.8476341891
 H       -11.0162211436        2.5052234550       -5.4750512212
 H        -9.8274985006        3.0614316208       -6.5332711169
 H        -9.5931648491        3.4039927487       -4.8665115836
 H        -9.5786101343        1.1377376287       -3.3589058090
 H        -9.3338373732       -0.3349262360       -3.8948304097
 H       -10.8360953885        0.2799181199       -4.2355383910
 H       -13.1046838413       -1.7285695204       -8.9032555994
 H       -14.0682393099       -3.1672555923       -8.7438806016
 H       -12.4616038758       -3.4098784561       -9.2228807720
 H       -14.3386566014       -1.4055218831       -6.2489094090
 H       -12.5959949879       -0.7076989767       -6.6662981027
 H       -12.8604942733       -1.4897344061       -5.1485274557
 H       -15.9050633126       -7.0004055085       -7.3465220180
 H       -15.6549570343       -6.1119721382       -5.8274398444
 H       -16.9839599528       -7.3391432544       -5.9645911281
 H       -14.2013399093       -8.7434779107       -3.7917665391
 H       -16.0401555621       -8.4577531943       -3.7618904098
 H       -14.7650840836       -7.2052174984       -3.5829422579
 H       -12.8412322333      -13.3101877372       -8.8478275924
 H       -14.0996933127      -13.3807518856      -10.2573555371
 H       -13.4687790951      -14.8727344399       -9.4101778553
 H       -16.6024173877      -15.3891757308       -7.8851046658
 H       -15.5391324771      -15.8610691839       -9.0928529066
 H       -16.5617270721      -14.5421711901       -9.6031820362
 H       -13.4554395949      -16.5313894003       -2.5001146950
 H       -14.7768470200      -17.7550683852       -2.5552652309
 H       -14.4624444210      -16.7826924188       -1.1576827849
 H       -17.2878480824      -14.8410629939       -2.5053859472
 H       -17.0877006758      -16.3330321400       -1.4144761467
 H       -17.5771660351      -16.4236664399       -3.1389646361
 Na      -16.0017668860      -12.6465017491       -5.0328091352
 Na        5.6924296689        2.8620432453      -15.0669062253
