232

 C         2.7011868310        6.6737603848      -20.4305015082
 C         3.3014446516        5.3099786352      -20.4582954819
 O         4.0036401085        4.9877064116      -21.3904618526
 C         3.0811889939        4.3114656665      -19.2293992737
 C         3.2626176080        2.7469236968      -19.5902345055
 O         4.3124275726        2.2130041254      -19.2721422249
 C         2.2990860699        1.9119611728      -20.3509701692
 C         3.0295963799        1.4898262775      -21.6624849376
 C         3.7196627038        0.1199918436      -21.5028458754
 O         3.5073826064       -0.5537199868      -20.5327453050
 C         4.9730178162       -0.4396798852      -22.4098266910
 C         6.0186942045       -1.0511890811      -21.3006164360
 O         6.4191521366       -0.2518115205      -20.4324097220
 C         6.3910407111       -2.6076366673      -21.3032137368
 C         7.1280932715       -2.9531049729      -20.0551302970
 C         6.4239250574       -2.5481966907      -18.7583510788
 O         5.1751422143       -2.4581142552      -18.8053034446
 C         7.2000096176       -2.3040221759      -17.3934495506
 C         6.2377064332       -1.6921669184      -16.2626655826
 O         5.3991641561       -0.8491782009      -16.5743500705
 C         6.5548919966       -1.8895423798      -14.7872194095
 C         5.3497107102       -1.9929177219      -13.8660916724
 C         4.7446381082       -3.4737207931      -14.2653522943
 O         5.2875054950       -4.1626726503      -15.0856652016
 C         3.4317851432       -3.8451770142      -13.6118989314
 C         3.5745439965       -4.2708997106      -12.0550108217
 O         4.5804848428       -3.8986309264      -11.4259861856
 C         2.4060131268       -4.9173323609      -11.3821816986
 C         2.3579009427       -4.6248587420       -9.9000538096
 C         1.3588018030       -5.5269439384       -9.1634528754
 O         1.0743467195       -6.6200388918       -9.6220754033
 C         0.7521964279       -4.9634278916       -7.7995180687
 C         0.1323628200       -3.6108689768       -8.1189024936
 O        -0.2866611832       -3.4297990284       -9.2296956372
 C         0.0696909309       -2.5709733659       -6.9402912089
 C        -0.8300614314       -1.3986795464       -7.2379499793
 C        -2.2873096496       -1.7783631013       -6.7326789232
 O        -2.5168277592       -2.7921064594       -6.0621208642
 C        -3.3152914928       -0.6678060043       -7.1270635770
 C        -4.7246381180       -1.4819463541       -7.1876071730
 O        -5.7126763761       -1.0308103392       -6.6942212229
 C        -4.7225573211       -2.8223638643       -7.8698202499
 C        -6.0127512792       -3.2720484921       -8.4818607017
 C        -6.6843607351       -2.1090136087       -9.1848118475
 O        -6.0649734529       -1.0912771118       -9.3126628447
 C        -8.2316148686       -2.0943839239       -9.6549351108
 C        -9.0466758896       -3.0925794167       -8.7415982555
 O        -9.1762586703       -2.8651121726       -7.5754939377
 C        -9.7377811361       -4.3339406156       -9.4116679846
 C        -9.8425651342       -5.6585356952       -8.6098879477
 C        -8.5621629864       -6.2343807138       -8.1548088034
 O        -7.5251792787       -5.8628969867       -8.6345766340
 C        -8.4955684409       -7.3990137490       -6.9855583332
 C        -7.9784080069       -6.7794207729       -5.6187820723
 O        -6.7549237405       -6.8166824203       -5.3277474419
 C        -9.0339027441       -6.1264427626       -4.6626602663
 C        -8.2947999457       -5.3626156808       -3.5562857398
 C        -7.5996532275       -4.0860184293       -4.1495940547
 O        -7.7115475905       -3.8088652490       -5.3054962083
 C        -6.7277661453       -3.0879049307       -3.1244022752
 C        -7.3969187954       -1.7313130255       -2.6902905800
 O        -7.8842336030       -1.0059769971       -3.5229257914
 C        -7.1763213320       -1.0941347672       -1.1973599959
 C        -8.5194109777       -0.7977235869       -0.4566079719
 C        -9.4722881076       -1.9408591415       -0.4469990931
 O        -9.2335955196       -3.0188178611       -0.9826523057
 C       -10.8980510825       -1.7624411736        0.1403721140
 C       -11.6820545493       -0.6798510368       -0.7217287669
 O       -11.7487585214        0.4361916149       -0.3024332749
 C       -12.1284571309       -1.0448145212       -2.1514932849
 C       -12.1575496327        0.2363492473       -2.9945489344
 C       -11.0974346887        0.2326319990       -4.1023894285
 O       -10.4239050018       -0.7745207952       -4.2957174221
 C       -10.6532417354        1.5352467946       -4.8672613867
 C       -10.4179082466        1.1198798825       -6.3363133513
 O        -9.6269406425        0.2849530833       -6.6435848175
 C       -11.4264984544        1.6941915659       -7.4807426498
 C       -10.6242605231        2.6090905627       -8.4319766695
 C       -10.0631448981        3.9647221870       -7.7595813990
 O        -9.2695465101        3.8585725347       -6.8452190905
 C       -10.8170170576        5.3433376256       -8.0860576595
 C       -10.7553734413        5.4533423539       -9.7100491547
 O        -9.9547066367        4.7807949736      -10.2964361841
 C       -11.5919828845        6.5032989866      -10.4609860460
 C       -12.3815785746        5.2286051142       -7.6518655056
 C       -10.1580444088        6.5836169795       -7.4618982006
 C       -11.7018818951        2.6497214910       -4.5813778281
 C        -9.3302721715        1.9552150498       -4.2579277894
 C       -11.6875520078       -3.1143272705       -0.0092512697
 C       -10.9066651376       -1.3912864517        1.6257692016
 C        -6.4139948559       -3.9080698117       -1.8622264934
 C        -5.4055307154       -2.5650733794       -3.8208314430
 C        -9.9469945141       -8.0211880148       -6.6643243879
 C        -7.4282920273       -8.4866675336       -7.4424504629
 C        -8.7655681716       -0.6611548148       -9.6596054367
 C        -8.1403953755       -2.4966744208      -11.2025529675
 C        -3.4310668801        0.5679403567       -6.2437326251
 C        -3.0154209297       -0.1478032322       -8.5657093829
 C        -0.1824342082       -5.9235136038       -7.1667386345
 C         2.0075463451       -4.8885369159       -6.8122173874
 C         2.5342453729       -2.6427270486      -13.6124440191
 C         2.7657655506       -5.0137134463      -14.4932326869
 C         7.5921815354       -3.7680323628      -17.1331589180
 C         8.3362612593       -1.3280904623      -17.3843604966
 C         4.3305866403       -1.4967091419      -23.3791670152
 C         5.6363864114        0.8010193756      -23.1223317570
 C         4.0512988524        4.6968765562      -18.1177251289
 C         1.6074349609        4.4953352692      -18.6628006765
 H         1.7572281412        6.9086636232      -19.9992519769
 H         2.5804090047        6.9443225571      -21.4383931698
 H         3.3687276258        7.4366006090      -20.0557279692
 H         1.3399579031        2.3691204785      -20.5690630280
 H         2.1500762233        0.9065695855      -19.7990586305
 H         3.7317608593        2.2714065944      -21.8787122757
 H         2.4326025903        1.4687037567      -22.6226216822
 H         6.9055183266       -2.9063353989      -22.2565835904
 H         5.4056396361       -3.0802716652      -21.1279887946
 H         8.1013502869       -2.6340147216      -20.1164278442
 H         7.3193604649       -4.0794135327      -19.9948729458
 H         7.0738832230       -1.0017309748      -14.4011096275
 H         7.1806786633       -2.7134715218      -14.5417610466
 H         4.6254031501       -1.1540052335      -13.9820633378
 H         5.7126052033       -2.1609823608      -12.8738532175
 H         2.2127233160       -6.0067740239      -11.5349924635
 H         1.4217040579       -4.4311777970      -11.7549292075
 H         2.0846039709       -3.5914203971       -9.7733333154
 H         3.3819577508       -4.5438034860       -9.5778763454
 H         1.1072377527       -2.3139348087       -6.6593503710
 H        -0.2524216587       -3.0800978957       -5.9915576385
 H        -0.9585042829       -1.2415842361       -8.2395951349
 H        -0.5471988964       -0.4365322775       -6.8164395615
 H        -4.3824012892       -3.5417010399       -7.0880915851
 H        -3.8051293895       -2.8668811538       -8.4488947025
 H        -6.7557925369       -3.6594083792       -7.9151906776
 H        -5.8968493389       -3.9523956566       -9.2579795811
 H        -9.3525444944       -4.5907620837      -10.4228469619
 H       -10.8033366134       -3.9745106486       -9.5817674955
 H       -10.3311227515       -6.3941784519       -9.2815251585
 H       -10.7067205503       -5.6556848647       -7.8806227768
 H        -9.5186201293       -7.0620304900       -4.4242698217
 H        -9.6742877546       -5.4812521499       -5.2132139945
 H        -7.5743416774       -6.0276138137       -3.1351394017
 H        -8.9952706255       -4.9915010821       -2.7809293071
 H        -6.6841883860       -0.1932221168       -1.3908437556
 H        -6.4645162421       -1.8168144398       -0.6751483899
 H        -9.1112395633        0.0069796546       -0.8449026183
 H        -8.3165334255       -0.3033505158        0.5476596075
 H       -13.0969679535       -1.4871058146       -2.0001805932
 H       -11.4289072239       -1.7891033856       -2.5213467899
 H       -11.8484999620        1.0886103416       -2.2864099660
 H       -13.2125419096        0.6137632827       -3.2283776527
 H       -12.2973217353        2.1640708290       -7.0934818446
 H       -11.8348236343        0.9281971990       -8.1499799530
 H       -11.2210176626        2.9717932868       -9.2890474320
 H        -9.7324872412        2.0970967758       -8.9229800097
 H       -12.6737779480        6.4795361942      -10.2358973207
 H       -11.3286834328        6.3207279897      -11.5002392132
 H       -11.2194420769        7.5250891275      -10.2205691626
 H       -12.6825658836        5.5418303847       -6.6423530323
 H       -12.6414651843        4.2224458281       -8.0649715298
 H       -12.8416638070        5.8391868508       -8.3805726449
 H        -9.4626232782        7.0656835621       -8.1256957895
 H        -9.5772403829        6.4222441741       -6.5522134383
 H       -10.9957353355        7.2171127644       -7.1286360085
 H       -11.4800343326        3.3802728301       -5.3147177715
 H       -11.5894849957        3.0365424948       -3.5121159280
 H       -12.6877369691        2.1776386566       -4.5475266228
 H        -8.9275409947        1.1194691166       -3.5983595150
 H        -9.6266509748        2.8712853323       -3.7382580484
 H        -8.6523466313        2.3213964885       -4.9805714629
 H       -12.7495304433       -3.1587755398        0.2178575525
 H       -11.3089899978       -3.9027497812        0.5462308528
 H       -11.6533271943       -3.5696640506       -0.9340729988
 H       -10.5019851257       -2.1040210024        2.2446580579
 H       -11.9032910696       -1.2048672714        1.9939448072
 H       -10.4778939383       -0.3933344271        1.6147858059
 H        -6.4217447624       -5.0307906079       -1.9680251020
 H        -7.1448332781       -3.7450497556       -1.0896197406
 H        -5.4508593817       -3.6809257044       -1.4655750424
 H        -4.6135194778       -2.5021313579       -3.1221421045
 H        -5.5467437075       -1.6424578549       -4.2919304662
 H        -5.0889283546       -3.2774489457       -4.6055898227
 H       -10.6898270466       -7.2394084508       -6.8272039326
 H       -10.0813147865       -8.4710873312       -5.6469535202
 H       -10.0670186360       -8.8198406270       -7.3260990555
 H        -6.9038329233       -8.1105843432       -8.3224152580
 H        -7.8167897178       -9.4915368044       -7.5515125560
 H        -6.6705475592       -8.4838554289       -6.6614537875
 H        -7.8938261563       -0.1157624499      -10.0461184770
 H        -9.0529846600       -0.3442617010       -8.6227179921
 H        -9.6758166340       -0.5832515423      -10.3676064304
 H        -9.1005546762       -2.4914763398      -11.6799264794
 H        -7.7594106121       -3.4824597893      -11.3849915969
 H        -7.4033990658       -1.8320343381      -11.6723245067
 H        -2.4894736549        1.1198732959       -6.2674426160
 H        -3.6256057815        0.3544502163       -5.2284796419
 H        -4.1906097046        1.2743429094       -6.5686787521
 H        -2.1804622810        0.5682536486       -8.5471445167
 H        -3.8962659228        0.3888820088       -8.8041998020
 H        -2.9211144411       -0.9535469768       -9.2353145396
 H        -0.5984899573       -5.5713597046       -6.2083959375
 H         0.3595717390       -6.7759400251       -6.8685724291
 H        -0.9830502811       -6.2388660240       -7.7692046620
 H         1.8540166274       -4.2980622534       -5.9694727392
 H         2.8543620174       -4.6062390432       -7.3595786588
 H         2.2264824182       -5.9059077368       -6.6069727711
 H         2.8722446731       -1.9549966274      -12.8855009877
 H         1.5517857546       -2.8384327035      -13.6181235713
 H         2.7978143002       -2.0105048448      -14.5406387146
 H         2.8124053094       -5.9600379083      -13.9862484431
 H         3.2265992733       -5.1752999774      -15.4725165060
 H         1.6899747675       -4.8479930424      -14.5451905614
 H         8.3043438091       -4.2598497430      -17.8657902581
 H         6.6746769857       -4.3522313504      -17.0475183009
 H         8.1030971652       -3.8041353914      -16.1370944807
 H         9.1407057784       -1.8508703100      -17.9103918337
 H         8.6857284737       -1.0695035871      -16.4361201395
 H         8.1804876276       -0.3646735496      -17.9064178574
 H         3.8167943267       -2.0744095186      -22.6574979584
 H         5.1478078901       -2.0962892508      -23.6361947548
 H         3.6440199838       -1.0722718253      -24.1549295332
 H         5.0470573222        1.4640984191      -23.6986742362
 H         6.4807146383        0.5659039726      -23.7461331346
 H         5.9198861664        1.5325588707      -22.3928283216
 H         4.9709226868        5.2089096232      -18.4560377920
 H         4.4445115961        3.9129400737      -17.4589102999
 H         3.6431412977        5.3152306946      -17.3537391505
 H         1.4168903242        5.3555585773      -18.0573315455
 H         1.3782947374        3.7076208891      -18.0422366457
 H         0.9032164062        4.3813573831      -19.5205656942
 Na       -7.9856336115       -1.4852697922       -6.0052693287
 Na        4.6430753335       -0.1026931911      -18.7602914367
