232

 C         2.8673938526        6.4460084585      -20.7854199969
 C         3.5019796164        5.0575913456      -20.4673581637
 O         4.0929350418        4.5311371972      -21.4002059341
 C         3.1875265280        4.2226522177      -19.1115624047
 C         3.4635776440        2.6434724055      -19.5577325754
 O         4.3334677729        1.9169585403      -19.1238519231
 C         2.3989258164        2.2660959366      -20.4964979055
 C         2.8136871592        1.4384705226      -21.7549321558
 C         3.4979803857        0.1328477893      -21.5806301508
 O         3.0928809568       -0.6152393253      -20.7499434914
 C         4.7760077743       -0.1419053671      -22.5122871758
 C         5.8805773728       -0.7167686915      -21.2932061109
 O         6.4017758203        0.1254485163      -20.5789858125
 C         6.5363860398       -2.0528685684      -21.4841615495
 C         7.3785942123       -2.4690038270      -20.2081526317
 C         6.5721221849       -2.3732037255      -18.8734422016
 O         5.4100578532       -2.6996848030      -18.8864742071
 C         7.2745314357       -2.0436294748      -17.4582045437
 C         6.2038586346       -1.5679100401      -16.3679949555
 O         5.2189000699       -0.9609236807      -16.7033396067
 C         6.5771176513       -1.7954455006      -14.8716292692
 C         5.2777104884       -1.8838700330      -14.0094952052
 C         4.6919200440       -3.3661186981      -14.4009550972
 O         5.2861939090       -4.0421293326      -15.2216495887
 C         3.3912478431       -3.8280471948      -13.7409344662
 C         3.7172802634       -4.2527369852      -12.1846454990
 O         4.7984579208       -3.9457878068      -11.6460165675
 C         2.6677250007       -5.0156503768      -11.4400104437
 C         2.7037372478       -4.9218978305       -9.8710299920
 C         1.3902022773       -5.5308377051       -9.3175283501
 O         0.8579113016       -6.4141904097       -9.9157023110
 C         0.7808637849       -5.0897612285       -7.8544686943
 C        -0.0512819921       -3.7154165878       -8.0429313660
 O        -0.5970257221       -3.5777597252       -9.1255669457
 C        -0.0468901241       -2.6452226655       -6.9205832285
 C        -0.8236581074       -1.4120952820       -7.1917815589
 C        -2.3247820271       -1.7340909745       -6.7291041868
 O        -2.5583081885       -2.4528561072       -5.7479636868
 C        -3.4669269457       -0.8159597497       -7.1966372422
 C        -4.8610446945       -1.6356989250       -7.1841999485
 O        -5.8778195505       -1.1250261974       -6.8177946049
 C        -4.7850491627       -2.9653148415       -7.9547285383
 C        -6.1599284045       -3.4414023584       -8.5439620061
 C        -6.7513359951       -2.4387450551       -9.5352126641
 O        -6.0747489120       -1.6759095560      -10.1881166494
 C        -8.3361916925       -2.4181783465       -9.7974541209
 C        -9.0295142788       -3.2652389946       -8.7146838656
 O        -8.8446168885       -3.0223473522       -7.5242357618
 C        -9.9004484721       -4.4336984929       -9.1255074504
 C        -9.9641243484       -5.3351201141       -7.8437709596
 C        -8.6515086428       -6.1121511670       -7.8603279527
 O        -7.8267584463       -5.8048369622       -8.6850851641
 C        -8.4858164634       -7.3091964300       -6.9672103086
 C        -7.7590070621       -6.7652318679       -5.7121046838
 O        -6.5657839830       -6.9080397771       -5.6026103268
 C        -8.6144791399       -5.9700647091       -4.6509123628
 C        -7.6278000968       -5.4453063133       -3.5880677842
 C        -7.4253442934       -3.8963304395       -3.8693922187
 O        -8.1395812124       -3.2329099661       -4.5877568886
 C        -6.3109403615       -3.0952689608       -2.8736299769
 C        -6.9988044968       -1.7841209783       -2.5034691054
 O        -7.4062421515       -1.0928234619       -3.4087929275
 C        -7.1610502777       -1.2569139774       -1.0673790921
 C        -8.5890869785       -0.8094428173       -0.8676307154
 C        -9.5889233508       -1.9341042377       -0.3690369230
 O        -9.1683904201       -3.0791020198       -0.2975711271
 C       -11.0560013199       -1.6962148969        0.3168433233
 C       -11.7055703943       -0.4676003071       -0.6375475663
 O       -11.4790845069        0.7072383627       -0.3765902257
 C       -12.4468646375       -0.8700028456       -1.8937906265
 C       -12.3367649096        0.1802743879       -3.0126188825
 C       -11.0698160146        0.2022564040       -3.9003109693
 O       -10.4426372689       -0.8812369796       -4.0650214399
 C       -10.7533813640        1.4110659952       -4.8387031075
 C       -10.6637094243        1.0298669610       -6.3365961587
 O        -9.9237343864        0.1421980833       -6.6551480931
 C       -11.4838657084        1.6431554490       -7.5878361098
 C       -10.5661926428        2.5949511924       -8.3511753913
 C        -9.9747028941        3.8911052313       -7.7097670388
 O        -9.0549139375        3.7798123653       -6.8936779961
 C       -10.7752637139        5.2697154759       -7.9779000452
 C       -10.7580783272        5.4719279124       -9.5915721113
 O        -9.8274979414        4.9465037355      -10.2221163752
 C       -11.8395592523        6.1776801615      -10.3713558300
 C       -12.3798548892        4.9867545594       -7.6433182995
 C       -10.1450858342        6.4711351677       -7.3279422130
 C       -11.8320022830        2.5551047950       -4.6406633644
 C        -9.3504527223        1.9735820303       -4.4088912822
 C       -11.9333711015       -2.9307328644        0.3118543996
 C       -10.7418017058       -1.1516970731        1.7962679284
 C        -5.8737236095       -3.8848589191       -1.6325542380
 C        -4.9864368212       -2.6317082265       -3.6297364374
 C        -9.8459622166       -7.9734605811       -6.7068126967
 C        -7.5810149436       -8.3097994831       -7.6643650477
 C        -8.8637509752       -0.9074254679       -9.6922646568
 C        -8.4306499553       -2.8936802503      -11.2454169505
 C        -3.5927907678        0.4412311827       -6.2110132325
 C        -3.3799961732       -0.1579686319       -8.5993813486
 C        -0.2400324229       -6.1739895657       -7.4469220897
 C         1.9768723773       -5.1844312338       -6.8652560132
 C         2.3974200576       -2.6133894269      -13.6265304397
 C         2.6934008836       -4.9168637114      -14.5501183978
 C         7.9366214759       -3.5208217486      -17.0886268992
 C         8.4072408256       -0.9899001967      -17.6798356785
 C         4.2812116300       -1.2970612385      -23.3663225812
 C         5.3822309380        1.0804470274      -23.0919167130
 C         4.1454718577        4.7401814479      -17.9917934818
 C         1.7336845276        4.4211633152      -18.6185276179
 H         2.3914152832        6.4274428182      -21.7155489471
 H         3.5999989571        7.1935579407      -21.0144854272
 H         2.1851123366        6.8900663046      -20.1502139408
 H         1.8300511420        3.0813958256      -20.8787580032
 H         1.6223840114        1.5938846917      -19.9972203478
 H         3.2988952512        2.1241814526      -22.4140703648
 H         1.8560979939        1.3281065768      -22.3655203480
 H         7.2960528177       -1.8801288215      -22.2787710082
 H         5.7413636729       -2.8045869232      -21.6859566233
 H         8.2446974803       -1.9437968164      -20.2586479002
 H         7.7551396053       -3.5196741532      -20.4245504259
 H         7.1961359557       -0.9549549079      -14.5063851202
 H         7.2197686005       -2.6026296248      -14.5960206803
 H         4.5804826209       -1.0640530724      -14.2244745479
 H         5.5249368411       -2.0580064234      -13.0031866727
 H         2.6935641180       -6.0610978757      -11.8393297353
 H         1.6009533347       -4.6919702256      -11.6301101766
 H         2.9518901368       -3.9224398745       -9.5779802575
 H         3.5968933300       -5.4305785477       -9.5230357230
 H         1.0340293175       -2.3561620799       -6.9912510359
 H        -0.1481588873       -3.2634302305       -5.9880593087
 H        -0.7723669424       -1.2250707939       -8.2040680793
 H        -0.4883995356       -0.4786205967       -6.7258144352
 H        -4.5396601686       -3.7843541201       -7.2491614437
 H        -3.9093079563       -2.8748121664       -8.6217112196
 H        -6.9287571077       -3.6897984099       -7.9073155194
 H        -6.0148202991       -4.3214440820       -9.1267866608
 H        -9.4815289158       -5.0125121096       -9.9746419457
 H       -10.8317414464       -3.8990300373       -9.5442797647
 H       -10.8698912184       -5.9689476376       -7.8274641234
 H       -10.2101513650       -4.5935672295       -7.0064723248
 H        -9.4411697734       -6.6056511431       -4.2084388912
 H        -9.0542683908       -5.1478479516       -5.2491266078
 H        -6.7514661371       -6.0338029115       -3.6978813370
 H        -8.1039667855       -5.6665120900       -2.6140639233
 H        -6.4632267445       -0.4066514111       -1.0034897137
 H        -6.6887649720       -2.0366098900       -0.3401454120
 H        -8.9503906655       -0.3340522884       -1.7794455605
 H        -8.6739561557        0.0369380523       -0.0881798088
 H       -13.5013025342       -0.8954289670       -1.6096025154
 H       -12.2022599259       -1.8754555760       -2.2034296522
 H       -12.4666769438        1.2362170965       -2.5873848767
 H       -13.2029034234        0.0463736406       -3.6926363379
 H       -12.4199198136        2.1973957056       -7.3504342110
 H       -11.7115358306        0.8010747016       -8.3163213328
 H       -10.9583494783        2.9387894251       -9.3488883053
 H        -9.6130505460        2.0935954488       -8.7873365009
 H       -12.7284384978        5.9704179317       -9.8999915357
 H       -11.7480367276        5.9427095491      -11.3679689642
 H       -11.7365245963        7.2791216701      -10.2463675759
 H       -12.4823787934        4.5438593100       -6.6760521540
 H       -12.5984512807        4.2669934995       -8.4556427540
 H       -12.9327267658        5.9741599344       -7.6663847876
 H        -9.0895278403        6.6777514291       -7.5570892142
 H       -10.1860674009        6.3274887753       -6.2256491854
 H       -10.7097736810        7.4342295502       -7.6501086369
 H       -11.6624999455        3.2173785121       -5.4309516783
 H       -11.6118602829        3.0453495362       -3.6706138542
 H       -12.8138950185        2.1261884362       -4.7167658053
 H        -8.5387492877        1.5318486432       -5.0418699971
 H        -9.2418907448        1.6032491327       -3.4112531418
 H        -9.3738806236        3.0404295889       -4.3253770350
 H       -12.8303077660       -2.8695993277        0.8546339895
 H       -11.5002731481       -3.7693910735        0.7319617873
 H       -12.3181064754       -3.2521001465       -0.6227273341
 H       -10.2301995265       -1.9112666351        2.3648646664
 H       -11.6921364265       -0.8845625989        2.2760533992
 H       -10.1472999446       -0.1795636140        1.6740503641
 H        -5.4222045707       -4.9085102151       -1.8185978264
 H        -6.5160907364       -3.8813751086       -0.7955838990
 H        -5.0035498960       -3.4170350572       -1.2346159760
 H        -4.6958914957       -1.7174663689       -3.2238600519
 H        -5.1304725872       -2.6060453494       -4.7114702924
 H        -4.1132803391       -3.2679679227       -3.4143612217
 H       -10.6509190107       -7.2750263318       -6.4244379579
 H        -9.7225552979       -8.7942837028       -5.9317117815
 H       -10.1165497503       -8.4209515972       -7.6352890831
 H        -6.5678918697       -8.0420062789       -7.7291807966
 H        -7.9596327454       -8.5354107534       -8.6419649711
 H        -7.6940131532       -9.1780433665       -7.0416182611
 H        -8.5856117779       -0.4709930521      -10.6046620505
 H        -8.5231796313       -0.4360689765       -8.7986636057
 H        -9.9540037207       -0.8641489532       -9.7919533756
 H        -9.4845168419       -2.9864620504      -11.4791257250
 H        -8.0318633956       -3.9118958079      -11.2134549389
 H        -7.7766791998       -2.4179471930      -11.9222132481
 H        -2.7621283732        1.1146771446       -6.1094651647
 H        -3.8087171744        0.0723730304       -5.2629074872
 H        -4.4284785907        1.0587026276       -6.4845117268
 H        -2.6467786398        0.6618192354       -8.6535526151
 H        -4.3336764595        0.2908351070       -8.7623818764
 H        -3.2223816000       -0.9613829444       -9.3165188822
 H        -0.6558843138       -6.0045125658       -6.3579673919
 H         0.2791274675       -7.0731019828       -7.3246454088
 H        -1.1144857390       -6.2032747836       -8.0692408132
 H         1.6401403170       -5.1170893596       -5.8061589908
 H         2.6390728962       -4.4058629586       -6.9729556827
 H         2.5076650723       -6.2036216480       -7.0715028987
 H         2.8718324633       -1.6714817532      -13.4252796339
 H         1.6661659525       -2.8403211958      -12.8941628894
 H         1.6826177612       -2.6754680565      -14.5021271721
 H         3.4162804806       -5.5361368034      -15.0599469644
 H         2.0763665594       -4.4895085671      -15.3493349609
 H         2.0770522945       -5.5673854959      -13.9038310527
 H         8.0669258333       -4.3405279324      -17.8958054380
 H         7.2546189123       -3.9583809395      -16.4165798579
 H         8.9010552213       -3.2902546507      -16.5669695038
 H         9.2430130164       -1.5625718549      -18.1170282878
 H         8.7459651291       -0.4401547614      -16.8850131920
 H         8.1898122658       -0.2180125595      -18.4657567601
 H         3.5619768030       -1.8205012344      -22.7611527914
 H         5.1641610022       -1.8876641956      -23.7017738653
 H         3.7777652809       -0.7625665548      -24.1990610796
 H         4.8172420395        1.5688143592      -23.8641725442
 H         6.3862474187        1.0469329821      -23.4133826393
 H         5.2286812240        1.9126779895      -22.3250516415
 H         4.9066025925        4.0933230360      -17.6232317837
 H         3.6810601956        5.1725500421      -17.0847931140
 H         4.6896944965        5.5981585395      -18.3660285560
 H         1.7489371102        5.4074762445      -18.2209848632
 H         1.4752235438        3.8441713214      -17.7874811606
 H         1.0068204743        4.2645280744      -19.4494577760
 Na       -8.3035146372       -1.2359305420       -5.7685070950
 Na        4.6767312497       -0.0499739712      -18.8568501862
