232

 C         3.0126556062        6.3838379671      -20.7133238832
 C         3.5250721007        4.9817366631      -20.6078275870
 O         4.1093153638        4.3146658691      -21.4302534491
 C         3.2591710602        4.2599272157      -19.2521185869
 C         3.1246792909        2.7373810725      -19.4961477819
 O         3.8174933271        1.9710608490      -18.8529512108
 C         2.0844169449        2.1539841548      -20.3995351076
 C         2.7620778424        1.6072819072      -21.7237456728
 C         3.6008389778        0.3594732970      -21.5747870743
 O         3.1178682877       -0.4043806608      -20.6903823346
 C         4.8367373179       -0.1582339520      -22.3837110076
 C         5.9179240841       -0.6548723886      -21.3444808991
 O         6.3676731320        0.1655682148      -20.5972310280
 C         6.4953990460       -2.0637984878      -21.4111719439
 C         7.4880466084       -2.2563121878      -20.2802501310
 C         6.7180764693       -2.2153165512      -18.9529363164
 O         5.4808921715       -2.4258707365      -18.9926956345
 C         7.4176810811       -2.0210823975      -17.5198148894
 C         6.3001391941       -1.5536633521      -16.4966442402
 O         5.3084188473       -0.8988463512      -16.8825299210
 C         6.5800724376       -1.6006579274      -15.0389858586
 C         5.3395902071       -1.9496824939      -14.2623439355
 C         4.6565971255       -3.3232809024      -14.6022777363
 O         5.1242043606       -4.1084618692      -15.3826011106
 C         3.3511851883       -3.8014623568      -13.7705656973
 C         3.7368014776       -4.2682129754      -12.2174107505
 O         4.7337843699       -3.8103101429      -11.7337077374
 C         2.6921778894       -5.0799764755      -11.4703518744
 C         2.6095393850       -4.8428717865       -9.9666670402
 C         1.3386565263       -5.5572735520       -9.4125998113
 O         0.6663847820       -6.2478420531      -10.1735613005
 C         0.8361421058       -5.1256321125       -7.9291933065
 C         0.0211783317       -3.8401778884       -8.1171631041
 O        -0.6478616191       -3.7422172316       -9.0963881947
 C         0.0071687136       -2.6800010947       -6.8775218069
 C        -1.0261067153       -1.6369033524       -7.3097589764
 C        -2.3665236532       -1.7568800907       -6.6252842674
 O        -2.6242641979       -2.5286925803       -5.7426832171
 C        -3.5615853953       -0.7591819052       -7.1215290732
 C        -4.9123391039       -1.5555076140       -7.2469839960
 O        -5.9666715103       -1.3092188656       -6.6724830053
 C        -4.7766338779       -2.8250080007       -8.0970156940
 C        -6.1416504054       -3.3323958902       -8.4382561104
 C        -6.7238251490       -2.5482232139       -9.6280928118
 O        -5.9702727155       -2.0516634853      -10.4027098471
 C        -8.2944004616       -2.4951497967       -9.7851405120
 C        -9.0155591107       -3.1023278677       -8.6013988451
 O        -8.7875591328       -2.6188946921       -7.5043061588
 C       -10.2182228981       -4.1613214891       -8.7065873106
 C       -10.0718304550       -5.3369213104       -7.7440252229
 C        -8.8391990368       -6.1424654849       -7.8829852765
 O        -7.8469970225       -5.7911905996       -8.5463020766
 C        -8.5803209843       -7.4921805098       -6.9213535055
 C        -7.7263468627       -6.7959146878       -5.6774965480
 O        -6.4978975018       -6.8316631357       -5.8305999839
 C        -8.3135389050       -6.0195787979       -4.4840945498
 C        -7.1812973254       -5.4391909592       -3.5815293804
 C        -7.2866724116       -3.8987138422       -3.6193299000
 O        -8.1029040616       -3.2980007643       -4.2614450436
 C        -6.2418528101       -3.0108364743       -2.7670184995
 C        -6.8570950112       -1.6348608772       -2.4291608660
 O        -7.1578373621       -0.8306362835       -3.3222797130
 C        -7.3798365393       -1.2683791823       -0.9862099408
 C        -8.8640450822       -0.9291563324       -1.0352380971
 C        -9.6477663815       -2.0467328456       -0.3205888740
 O        -9.1692338104       -3.1367858944       -0.1885208932
 C       -10.9839810371       -1.5164357348        0.3649705983
 C       -11.4932471025       -0.4746399024       -0.6986640662
 O       -11.2098533044        0.6974994883       -0.5718476163
 C       -12.2723879619       -0.8681792576       -1.9956879042
 C       -12.2836216643        0.2435528914       -3.0638893692
 C       -11.1037523247        0.0996580290       -3.9979796364
 O       -10.3717142143       -0.8157052473       -3.9307470016
 C       -10.7807940010        1.3758099749       -4.8420507808
 C       -10.6479834624        0.9713903862       -6.4134779903
 O        -9.8606981876        0.1040003473       -6.8021157300
 C       -11.4516371883        1.7567690494       -7.3432798594
 C       -10.5596062231        2.4595914385       -8.4112544845
 C       -10.0610690808        3.8099042635       -7.7229878589
 O        -9.2643516772        3.7667734956       -6.8100669792
 C       -10.9039305356        5.1311428140       -8.1381295350
 C       -10.6870635737        5.3921714929       -9.6293408581
 O        -9.7495502645        4.9533350299      -10.2277368179
 C       -11.8629991278        6.1872689256      -10.2221813138
 C       -12.3297079358        5.0590736705       -7.5630075031
 C       -10.2001717287        6.2943855275       -7.2718793613
 C       -11.7629617221        2.5259799016       -4.5525360499
 C        -9.4295325653        1.8174473462       -4.4105673610
 C       -11.8873453614       -2.8593090127        0.4677918401
 C       -10.6809853800       -0.7730414707        1.6650875416
 C        -5.7840083430       -3.9008288197       -1.5686047877
 C        -5.0603706687       -2.8182662352       -3.8082213146
 C        -9.8128428785       -8.2119059711       -6.5139767363
 C        -7.6051731413       -8.4536422705       -7.7061074845
 C        -8.7593328770       -0.9974097224       -9.9109457805
 C        -8.7180930149       -3.1444053002      -11.1343961452
 C        -3.8856911643        0.4362143009       -6.2020721121
 C        -3.1776119936       -0.2643328478       -8.6298709188
 C        -0.2189050033       -6.1854244210       -7.5885035155
 C         1.8848561834       -5.0044682533       -6.7637823825
 C         2.4452772242       -2.6283719556      -13.4668146394
 C         2.7448695925       -4.9976141635      -14.6374498609
 C         8.0312523216       -3.3075382530      -17.0092933131
 C         8.4414169478       -0.8243187052      -17.4418015914
 C         4.3268282291       -1.1449816282      -23.5299893662
 C         5.4283836886        1.1151732871      -23.1293201854
 C         4.4205207694        4.5897165558      -18.3442511081
 C         1.8157577718        4.6662332081      -18.5132324023
 H         3.0237265541        6.8418167728      -21.7242226277
 H         3.5417460923        7.1468848446      -20.1794285027
 H         1.9305458610        6.4119214331      -20.3809047101
 H         1.3186648665        2.8485282909      -20.8406284360
 H         1.5177468155        1.3857909020      -19.9390703620
 H         3.1565092375        2.5194884933      -22.2387100366
 H         1.9620728942        1.3837792300      -22.3790087835
 H         7.0951244869       -2.0927806172      -22.3161995517
 H         5.7338444856       -2.8295336327      -21.2937865436
 H         8.4160602678       -1.5571448954      -20.3356880235
 H         7.9057950414       -3.2704308214      -20.3858706778
 H         6.9554257378       -0.6262191238      -14.7344120707
 H         7.4198090037       -2.2279962681      -14.7087740465
 H         4.5251683046       -1.3088034071      -14.6049247845
 H         5.4652418555       -1.9602687818      -13.1358686581
 H         2.8439878629       -6.1566575672      -11.5623811212
 H         1.6958344722       -4.9484321613      -11.8287004126
 H         2.6878515550       -3.7894698416       -9.6202230845
 H         3.5644589766       -5.2619600747       -9.6237812720
 H         0.9932501631       -2.2867866278       -6.6040124053
 H        -0.4574420713       -3.2397388829       -6.1059167937
 H        -1.1863736464       -1.6157412084       -8.4397098918
 H        -0.7660450837       -0.5962720531       -7.1429183506
 H        -4.2603729753       -3.6464748444       -7.5651931553
 H        -4.1933104955       -2.5298118654       -8.9801024864
 H        -6.9615427519       -3.2147193721       -7.7059252767
 H        -6.1376515450       -4.4384084466       -8.7070865269
 H       -10.2992122765       -4.5480742384       -9.7246276175
 H       -11.1405568297       -3.6647890206       -8.5004879032
 H       -11.0198792818       -5.8830025370       -7.8260558859
 H       -10.1493364410       -4.8603235643       -6.7979774157
 H        -9.0472510911       -6.5228819600       -3.9148978258
 H        -8.8158339986       -5.2175365320       -5.0369323091
 H        -6.1972074915       -5.7341921406       -4.0275782552
 H        -7.2425844314       -5.8544535096       -2.6011234810
 H        -6.6985835131       -0.5146941766       -0.6712337609
 H        -7.1632698258       -2.0703228233       -0.3282340347
 H        -9.3249193604       -0.7558657024       -2.0407533460
 H        -9.1001365929       -0.1008273918       -0.4369648451
 H       -13.3214043918       -1.0809010484       -1.7550098512
 H       -11.8988603094       -1.8253708811       -2.4094149312
 H       -12.2349006520        1.1962223513       -2.5492970512
 H       -13.2337746949        0.2802884614       -3.6987131318
 H       -12.0862113641        2.4364172096       -6.8362780228
 H       -11.9864348605        1.0460266445       -7.9039990551
 H       -11.0720512279        2.7631179678       -9.2944742508
 H        -9.8334948863        1.8024210925       -8.7684805604
 H       -12.8531174193        5.5842196740      -10.1876557819
 H       -11.5063242037        6.4796546129      -11.2600210478
 H       -12.0902051928        7.0597630321       -9.6434082053
 H       -12.2396058791        4.8805921890       -6.4523705762
 H       -12.8690401508        4.2275764124       -8.0169586071
 H       -12.6379324192        6.0085856898       -7.7486930472
 H        -9.2567251356        5.9040634086       -6.8708442307
 H       -10.7779207690        6.6005034364       -6.3971343146
 H        -9.8541754802        7.0630813467       -7.8716168730
 H       -11.3859330998        3.5226968451       -4.9231485638
 H       -11.7817314706        2.5979694742       -3.4753792383
 H       -12.7068776773        2.2592413916       -5.0800881040
 H        -8.7820919381        0.9357535837       -4.4789266829
 H        -9.4534515096        2.1306054035       -3.3091374819
 H        -9.1182349293        2.6627718188       -5.0562816707
 H       -12.6857145385       -3.0340974398        1.2579557210
 H       -11.2130725624       -3.6799853896        0.8043075609
 H       -12.3726776326       -3.2403980337       -0.4260144857
 H       -10.3214860041       -1.5496265051        2.3465373669
 H       -11.5944030885       -0.2475961529        1.9614551314
 H        -9.8618811055       -0.1268545571        1.5152076436
 H        -5.0531200208       -4.5885427158       -1.8128150473
 H        -6.6297866141       -4.3372691565       -1.0139552010
 H        -5.3363118110       -3.3724353436       -0.6978709634
 H        -4.6239590706       -1.8063362829       -3.6990394418
 H        -5.4013129719       -3.0020219725       -4.7757257116
 H        -4.2554647400       -3.5101545556       -3.5752146308
 H       -10.6510746452       -7.6163013699       -6.1566898452
 H        -9.5028356548       -8.8935733364       -5.7666454128
 H       -10.2025616009       -8.7755892825       -7.3953549158
 H        -6.5871628361       -8.4807049160       -7.2417647415
 H        -7.4413608203       -8.0829315873       -8.7200414219
 H        -7.9641487323       -9.4782527203       -7.7068124620
 H        -8.2692782364       -0.4622532188      -10.7687761897
 H        -8.7434418299       -0.4931597094       -8.8982528347
 H        -9.7805321561       -1.0706890414      -10.3201519742
 H        -9.7597949148       -2.9512569145      -11.2926893074
 H        -8.4812796472       -4.2041225838      -11.2468691592
 H        -8.1401868202       -2.5227352682      -11.8863132143
 H        -3.0504948894        0.9775242934       -5.8110752106
 H        -4.4565956973        0.0881687162       -5.3201839556
 H        -4.4843369923        1.1649738226       -6.7408408505
 H        -2.4345887559        0.5234989838       -8.6650613211
 H        -4.0890537305        0.1665356528       -9.0531206953
 H        -2.8808240500       -1.0949145236       -9.2206456868
 H        -0.8179031451       -5.8625575207       -6.8223338975
 H         0.2357776743       -7.1842995118       -7.3768632095
 H        -0.8659220184       -6.2457500400       -8.4599724132
 H         1.5932322126       -4.3421582747       -5.9732057873
 H         2.9036078165       -4.6815408412       -7.0599316105
 H         1.9370822926       -5.8876322841       -6.2272083489
 H         2.9219677364       -2.0995030060      -12.6331480006
 H         1.4540856714       -2.8828087303      -13.1158418095
 H         2.3251057232       -2.0206130572      -14.3637686297
 H         3.4555554766       -5.8280170889      -14.7504030957
 H         2.4330098533       -4.6606117418      -15.6238373642
 H         1.8652526909       -5.3765260401      -14.1420161932
 H         8.5519039896       -3.6510352090      -17.8575602685
 H         7.2850717562       -4.1519337359      -16.7917404840
 H         8.7624719602       -3.1520474865      -16.2214134590
 H         9.4187103139       -1.0093725781      -17.8384581583
 H         8.6273067001       -0.6263167184      -16.3275816070
 H         8.1246509811        0.0886521341      -17.8701362249
 H         4.0174852572       -2.0559198974      -23.0184459731
 H         5.1169173153       -1.2403028803      -24.2024939947
 H         3.5860970151       -0.5628434016      -24.0572675530
 H         4.5825949497        1.6001672720      -23.6454501333
 H         6.1342593371        0.7468486996      -23.9265665629
 H         5.9582408352        1.8706354429      -22.6674466296
 H         4.8591495424        3.7111478488      -17.7724847661
 H         4.2074920280        5.2754811429      -17.5335998367
 H         5.2727579901        5.0294798938      -18.8914569922
 H         1.8631882720        5.6098725108      -17.9073366825
 H         1.4149060057        3.8134809987      -17.9383810139
 H         1.1271268972        4.8581229414      -19.3083175311
 Na       -8.4563182018       -1.3608259154       -5.4581732695
 Na        4.6303110437       -0.4887663350      -18.9924284396
