232

 C         3.1511587132        6.3679796965      -20.7724904727
 C         3.4162168127        4.8955920931      -20.6490121083
 O         4.0741301271        4.4047048901      -21.5460794447
 C         3.2398260012        4.1428553335      -19.2051848072
 C         3.0142157585        2.5504145899      -19.3439168888
 O         3.6580904106        1.7079582221      -18.7739745647
 C         1.9914238340        2.1168120102      -20.4958541258
 C         2.7744830925        1.7566656259      -21.7509349073
 C         3.5499271587        0.3848126022      -21.5287293478
 O         3.3242543903       -0.4328187369      -20.6686453008
 C         4.7838455312       -0.0080550883      -22.5468625752
 C         5.9418323431       -0.5874329757      -21.4160390371
 O         6.2976777434        0.1502541817      -20.5147819693
 C         6.4911211735       -2.0039861662      -21.4824880091
 C         7.5223285078       -2.1021976239      -20.2920248972
 C         6.7935150945       -2.1809450590      -18.9457208592
 O         5.5996154468       -2.5027951234      -19.0532470646
 C         7.4271081027       -1.9343645381      -17.5507778992
 C         6.3281050668       -1.4065311262      -16.4869490261
 O         5.3729958102       -0.8500800457      -16.8862033104
 C         6.4997477101       -1.5802134070      -14.9699804434
 C         5.2499651452       -1.9728886949      -14.2209235079
 C         4.6706366542       -3.3811407053      -14.5822048096
 O         5.0856221135       -4.0829352568      -15.4644077429
 C         3.4146466583       -3.7615496181      -13.7152426312
 C         3.7320962740       -4.2437091399      -12.2864679836
 O         4.7737994323       -3.7760890096      -11.7304055816
 C         2.8085780324       -5.1402158502      -11.6260384867
 C         2.5703028225       -4.8281872484      -10.0548184146
 C         1.2764463420       -5.4545652689       -9.4664071832
 O         0.6444907864       -6.2058027301      -10.1488869297
 C         0.7940813499       -5.1203516889       -7.9765353186
 C        -0.0458913156       -3.8285091350       -8.0801265105
 O        -0.6604216844       -3.6521103097       -9.0866697068
 C        -0.1787659537       -2.8229091096       -6.9926458123
 C        -1.1120807270       -1.6326048014       -7.3361852683
 C        -2.4723504619       -1.7192221744       -6.6446094588
 O        -2.6675242448       -2.4973029022       -5.7240823338
 C        -3.6238287858       -0.7746075708       -7.1882650290
 C        -4.9197748040       -1.6192148634       -7.2757628566
 O        -5.8085512870       -1.2917134316       -6.5504354800
 C        -4.7953832274       -2.8912118891       -8.1082855701
 C        -6.0885889145       -3.4372302126       -8.5131603554
 C        -6.7538609609       -2.6631854984       -9.7405510879
 O        -6.0603687694       -2.1324936620      -10.5687354180
 C        -8.3566279252       -2.5006297861       -9.7970424303
 C        -9.1360184845       -3.0124074920       -8.4511247999
 O        -9.0324464632       -2.4769362616       -7.3877628046
 C       -10.3012070872       -4.0918806656       -8.4909692065
 C       -10.1032729239       -5.4518935152       -7.6120978585
 C        -8.7843445972       -6.1301985940       -7.8016213943
 O        -7.9787230988       -5.7765984406       -8.6083538977
 C        -8.5287419977       -7.4528849880       -6.8825576271
 C        -7.5906768598       -6.7986898021       -5.7522868142
 O        -6.3882089369       -6.8536232191       -5.9146374277
 C        -8.2143716423       -6.1650041190       -4.5051693592
 C        -7.1594582482       -5.4805189940       -3.6153101988
 C        -7.2847746692       -3.9252347946       -3.6063812107
 O        -8.2174212787       -3.4772132866       -4.2270333675
 C        -6.2214671574       -3.0427050876       -2.8369317868
 C        -6.8336095481       -1.5967603906       -2.4581471779
 O        -6.9978326058       -0.7112066126       -3.2919797256
 C        -7.2259144064       -1.1730094324       -1.0009490250
 C        -8.7252377127       -0.9685537078       -0.9560204924
 C        -9.6302963143       -2.0230002097       -0.2345285534
 O        -9.3032998235       -3.1875956885       -0.1302731553
 C       -11.0235857212       -1.4997541608        0.2957380215
 C       -11.5453242876       -0.4704587470       -0.7107895046
 O       -11.1317308024        0.6702630769       -0.5755244084
 C       -12.2311107483       -0.9711685335       -1.9830895599
 C       -12.3512253804        0.1039956615       -3.0460967488
 C       -11.0845440476        0.1411004556       -3.9302127187
 O       -10.3321936690       -0.8578204107       -4.0236213524
 C       -10.7285467386        1.3720237206       -4.8195208309
 C       -10.6865020798        0.9286305771       -6.3991198573
 O        -9.8162382425        0.1147471421       -6.6466519973
 C       -11.5618437213        1.6268683705       -7.4477365596
 C       -10.6171196895        2.4289756889       -8.3696832705
 C       -10.2068324980        3.7725294101       -7.6607435910
 O        -9.2869666748        3.6517297566       -6.8288079165
 C       -10.8502581244        5.1175030452       -7.9920833624
 C       -10.7547358915        5.3829958944       -9.5738192141
 O        -9.7948376885        4.9971455545      -10.2355242898
 C       -11.7982682943        6.2613136025      -10.3371751719
 C       -12.3674575234        5.0941243839       -7.5414226659
 C       -10.1280986936        6.3464215374       -7.3206935429
 C       -11.6920324759        2.5637235744       -4.6084783582
 C        -9.2556704571        1.7895366287       -4.3476529413
 C       -11.9836509128       -2.7328399822        0.5558483951
 C       -10.7091283455       -0.7048009745        1.5708393075
 C        -5.7202911201       -3.6815624788       -1.5274690396
 C        -4.9568809510       -2.9744588741       -3.8800536774
 C        -9.7488874888       -8.1592274331       -6.2754554670
 C        -7.7440026997       -8.4552578834       -7.7218724330
 C        -8.5571447501       -1.0180356174       -9.9620952016
 C        -8.7577211502       -3.3293491693      -11.1410010487
 C        -3.8122255780        0.3723144464       -6.1997263406
 C        -3.1957442003       -0.1456070090       -8.5156549944
 C        -0.2122288516       -6.2439532957       -7.5412811291
 C         1.9239940772       -5.0333316170       -6.9029517340
 C         2.3921933625       -2.6000533076      -13.5991929900
 C         2.6876743115       -4.9664850337      -14.4428168203
 C         8.0858821438       -3.3310259677      -17.1056459178
 C         8.4213625965       -0.8005988728      -17.5780207416
 C         4.3529966216       -1.1843596682      -23.4004590743
 C         5.4752712917        1.2009615788      -23.1213341600
 C         4.4608550009        4.6283634656      -18.4387195097
 C         1.9739210714        4.8285493249      -18.4514299771
 H         3.7229278285        6.8383422636      -21.6273739661
 H         3.4867719848        7.0450605750      -19.9487041383
 H         2.0618574824        6.6152845875      -20.9661582991
 H         1.2522099424        2.8232170572      -20.8172922125
 H         1.3973105844        1.2560027509      -20.2313942659
 H         3.3629410675        2.6280488808      -22.0026283864
 H         2.1494625877        1.7054766666      -22.6374473645
 H         7.0208191984       -2.1016377648      -22.4384389148
 H         5.7194037395       -2.6827668768      -21.2558274600
 H         8.0872211781       -1.2715076758      -20.2644640591
 H         8.2432493118       -2.9535586430      -20.3948604482
 H         6.9091227742       -0.6530860522      -14.4926327373
 H         7.2632788583       -2.2718000229      -14.6303207344
 H         4.3891125584       -1.2937369134      -14.3983687516
 H         5.5048346659       -2.0721199385      -13.1648449663
 H         3.0491906685       -6.1351010085      -11.7702025043
 H         1.8181044952       -5.0287544970      -12.0085069196
 H         2.4693471961       -3.7065894611       -9.9365768576
 H         3.4822441782       -5.0353368469       -9.4754403458
 H         0.8716481987       -2.4947511520       -7.0564611025
 H        -0.4526949366       -3.1839012108       -6.0185188111
 H        -1.3670722264       -1.5645357549       -8.4275408748
 H        -0.6148134102       -0.6112325344       -7.1419414093
 H        -4.2292110661       -3.6814433893       -7.6033392710
 H        -4.2753826342       -2.5273815451       -8.9831936638
 H        -6.9388636125       -3.4198658616       -7.8028596400
 H        -5.9749867146       -4.5636802822       -8.8461807289
 H       -10.5373380898       -4.3881337346       -9.4639365420
 H       -11.1974721477       -3.6250814768       -8.0940401239
 H       -10.9547475790       -5.9847330710       -7.9999218143
 H       -10.3665802744       -5.1707102442       -6.6302954649
 H        -8.6580984063       -7.0008520848       -3.9258131787
 H        -9.0474382542       -5.4611124908       -4.7263300698
 H        -6.1406200381       -5.7562573733       -4.0333435129
 H        -7.2305388987       -5.9087844511       -2.6184294205
 H        -6.5965115075       -0.2909690286       -0.8466378923
 H        -6.8050828155       -1.9015646903       -0.1838102479
 H        -9.2133972542       -1.0691611329       -1.9139353545
 H        -8.9886585032        0.0054954001       -0.5220002909
 H       -13.1956991595       -1.4574381222       -1.7863168959
 H       -11.5964317002       -1.8297437744       -2.3651644479
 H       -12.4582859491        1.0086659107       -2.5484642479
 H       -13.1565611953       -0.0082965968       -3.7683278237
 H       -12.2390639472        2.2566908918       -6.9194577185
 H       -12.0575815804        0.8896705295       -8.1162563925
 H       -10.9420760986        2.6508460616       -9.3366194158
 H        -9.7235943747        1.8282217800       -8.4950720595
 H       -12.5926038448        5.5567642404      -10.6990155090
 H       -11.2852846575        6.7785868441      -11.1417065288
 H       -12.3754240948        6.9466552194       -9.6633385035
 H       -12.5357402383        4.6583765963       -6.5721923821
 H       -12.7430401888        4.4184874961       -8.2802170974
 H       -12.6813432622        6.0893329313       -7.6963350165
 H        -9.2688982766        6.2095008179       -6.7272595034
 H       -10.8649764804        6.8399044118       -6.7288142460
 H        -9.7455186853        6.9198251044       -8.1373149846
 H       -11.3479786923        3.4399369844       -5.0995026569
 H       -11.5461801420        2.7726183302       -3.5141811537
 H       -12.6774158031        2.3278838606       -4.9890918923
 H        -8.6612198248        0.8847072830       -4.0357809240
 H        -9.2906645917        2.5010406966       -3.4831186284
 H        -8.8469799563        2.2386286822       -5.2185758437
 H       -12.8904406453       -2.3870648124        1.1757195484
 H       -11.6763981286       -3.6157123354        1.1611057049
 H       -12.5138774885       -3.1649093874       -0.3192843157
 H       -10.2719664452       -1.4107820966        2.2079885704
 H       -11.6196206934       -0.1568514634        1.9146381455
 H        -9.8375520082       -0.0710423697        1.3412295963
 H        -4.9690803715       -4.4767079818       -1.7641229736
 H        -6.4794422852       -4.0901200872       -0.8771011045
 H        -5.2338000906       -3.0540695636       -0.8137289974
 H        -4.3063592765       -2.1483863539       -3.5563335879
 H        -5.3403941908       -2.8009805557       -4.8762774460
 H        -4.3301338881       -3.9364255101       -3.8519296889
 H       -10.3238329896       -7.5952001729       -5.5414018623
 H        -9.2933098769       -9.0140521319       -5.7524983740
 H       -10.4402912005       -8.4612249863       -7.0026260442
 H        -6.7935932938       -8.7406369341       -7.1806938225
 H        -7.4062336119       -8.0179106716       -8.6863286211
 H        -8.3125572816       -9.3984984095       -7.8661916187
 H        -7.8000583568       -0.6331829565      -10.6249325352
 H        -8.5034522989       -0.5977744998       -8.9333213632
 H        -9.5056574356       -0.7794496828      -10.5093906940
 H        -9.8185078516       -3.2232387975      -11.3733960869
 H        -8.4333452133       -4.4035757443      -11.0728720466
 H        -8.2092413406       -2.7892808260      -11.9740178592
 H        -2.8918608992        0.9662971199       -5.9679013763
 H        -4.2480236419        0.0474264653       -5.2426278089
 H        -4.5135585803        1.1206739685       -6.6835367998
 H        -2.2467697438        0.4600198647       -8.3142001963
 H        -3.9363149032        0.5398145868       -8.9243167712
 H        -2.9443559703       -0.9159816129       -9.2181354328
 H        -0.8176901741       -5.8541940652       -6.6034941179
 H         0.3444148514       -7.1559491328       -7.3692343885
 H        -0.9238011972       -6.4476187197       -8.3500920001
 H         1.6533331438       -4.4801408930       -5.9427891202
 H         2.7929655284       -4.5563137600       -7.2902408913
 H         2.2274194824       -6.0301135329       -6.3624707167
 H         2.4487100004       -2.2041323132      -12.5505610209
 H         1.4345097093       -2.9989669495      -13.5789899813
 H         2.4661857813       -1.7630141691      -14.4498519392
 H         3.2179396657       -5.8949447142      -14.3454920725
 H         2.6518979070       -4.6958801288      -15.5034362012
 H         1.6444374420       -5.0964569937      -14.1504273604
 H         8.9562038809       -3.4125366755      -17.7653728645
 H         7.4831769433       -4.1347587691      -17.3467890013
 H         8.3901386581       -3.3674760052      -16.0872728432
 H         9.1932811675       -1.0156609197      -18.3446652016
 H         9.0012309012       -0.8442620061      -16.6742697678
 H         8.1170174413        0.2534668604      -17.7538890752
 H         4.4046676669       -1.8435116533      -22.5823670637
 H         5.0493349963       -1.3538180196      -24.1694975443
 H         3.3830426028       -1.0233204952      -23.9146277139
 H         4.9488652621        1.9377585708      -23.7579991271
 H         6.3727869548        0.8301289386      -23.6489405648
 H         6.0259268455        1.7841706838      -22.3620083289
 H         4.6858773885        4.0101620143      -17.5211153813
 H         4.3539242366        5.6011298184      -17.9526582991
 H         5.3421788677        4.6320333302      -19.0485758398
 H         2.1426057643        5.9205488412      -18.1415739776
 H         1.6978646845        4.1693722248      -17.6539480586
 H         1.0804783806        4.8798933103      -19.2014439018
 Na       -8.4175543563       -1.3714209299       -5.3439706446
 Na        4.4657645916       -0.4435525441      -19.0149518342
