232

 C         3.5723322771        6.4211421496      -20.6769689399
 C         3.6412255768        4.9010305022      -20.6325946395
 O         3.9106200872        4.2144110677      -21.5869603400
 C         3.3172123779        4.0462116288      -19.3963003541
 C         2.8730086163        2.5730682493      -19.7123978015
 O         3.2864164747        1.8349301471      -18.8387479534
 C         1.9844237162        2.3168690359      -20.8852161931
 C         2.6777500893        1.5580540118      -22.0596525028
 C         3.4248911199        0.3418697706      -21.7073036377
 O         3.0014369991       -0.4188306634      -20.8019835003
 C         4.7967530757        0.0607155554      -22.4270164681
 C         5.8985582103       -0.2210066603      -21.2086587430
 O         5.9481257688        0.4667531796      -20.2078576421
 C         6.9439116856       -1.2716117075      -21.4546580617
 C         7.7622779394       -1.5672456458      -20.2554223480
 C         6.7776047632       -1.7936685080      -19.0622332722
 O         5.5861492272       -1.9347667358      -19.1999597735
 C         7.4196304903       -1.7655966063      -17.5773789554
 C         6.3716088317       -1.5768666278      -16.4875500687
 O         5.3028923773       -0.9369453430      -16.6838234846
 C         6.6826542749       -1.8147574219      -14.9838357666
 C         5.4367808273       -2.0964744621      -14.1826676092
 C         4.6909951760       -3.3270453031      -14.7024400412
 O         4.9529734187       -3.7973976651      -15.7836944015
 C         3.2732098864       -3.7987294850      -13.9560880561
 C         3.5637622563       -4.0628030583      -12.4728405881
 O         4.3894475577       -3.2979937112      -11.9848294888
 C         2.8745930650       -5.0781744156      -11.6715153430
 C         1.9483552777       -4.3985742403      -10.5784890125
 C         1.2159430876       -5.3992695558       -9.7766008304
 O         0.9398144734       -6.4234171525      -10.3608543509
 C         0.8093825249       -4.9907570578       -8.3107387290
 C        -0.0641103891       -3.6902481623       -8.3827090192
 O        -0.6269085039       -3.4223907916       -9.3884892259
 C        -0.2982865948       -2.7490543210       -7.1389801035
 C        -1.3641072165       -1.7225608170       -7.4614884711
 C        -2.6476702571       -1.8400662326       -6.5816151654
 O        -2.8537168885       -2.5831296550       -5.6604507379
 C        -3.8228106247       -0.8089600078       -7.0072777436
 C        -5.1968184534       -1.5755906996       -7.2016315909
 O        -6.2215028163       -1.2691450363       -6.6218339224
 C        -4.9621676377       -2.9265294486       -7.9889433508
 C        -6.3176158002       -3.7163352345       -8.3044679868
 C        -7.1120767722       -3.2498592280       -9.5305922884
 O        -6.5693513350       -3.0401337113      -10.5747013111
 C        -8.7282613346       -2.9161020310       -9.5402430096
 C        -9.3471125906       -3.0818947317       -8.1458434273
 O        -8.7605458250       -2.4887270829       -7.2509807030
 C       -10.5599691646       -4.1181078754       -7.8352034302
 C       -10.1934617735       -5.2357612072       -6.7621370710
 C        -9.0920983350       -6.0672353633       -7.3233353242
 O        -8.5545047270       -5.8128484255       -8.3981114968
 C        -8.5822672051       -7.3762185047       -6.5489702794
 C        -7.4789504686       -6.6566216366       -5.5947549501
 O        -6.4892265968       -6.1892020651       -6.1494309736
 C        -7.7356734685       -6.5605065088       -4.0830230579
 C        -6.6619534235       -5.7853872460       -3.3604213341
 C        -6.8589115026       -4.2551547099       -3.5631700547
 O        -7.6889167970       -3.7576732145       -4.2609128708
 C        -5.9161215424       -3.2019799214       -2.7039809834
 C        -6.7332789040       -1.9896500743       -2.4830579889
 O        -7.0752597373       -1.3179293167       -3.4387580605
 C        -6.9988549079       -1.5289123718       -1.0468222178
 C        -8.3185389464       -0.7064684199       -0.8160343960
 C        -9.4416622924       -1.7342229597       -0.2821618698
 O        -9.2834373842       -2.9339355412       -0.1738809571
 C       -10.7776251441       -1.1111059742        0.2625050326
 C       -11.4179476727       -0.3042389444       -1.0738424189
 O       -11.4871144820        0.8897983646       -1.1918145230
 C       -12.1638115373       -1.1423957624       -2.1163155604
 C       -12.1682027944       -0.3885404566       -3.4993774581
 C       -10.7550597324       -0.0876714603       -4.0066220316
 O        -9.9167657707       -0.9347097476       -3.9764747397
 C       -10.3821462918        1.3039224871       -4.6220791736
 C       -10.0917848353        1.2298125618       -6.2124198200
 O        -9.1129250709        0.5902935767       -6.6020323828
 C       -11.2640021032        1.3581283452       -7.1258364655
 C       -11.2370060274        2.4190658862       -8.1729537434
 C       -10.5829339222        3.6940685312       -7.5601333432
 O        -9.8018520838        3.5339179565       -6.5829301100
 C       -10.9987088778        5.1182021231       -8.0658282674
 C       -10.6873642291        5.1922509011       -9.5881382056
 O       -10.1759718410        4.2497212337      -10.1689767894
 C       -11.2860353096        6.4570226648      -10.1951958018
 C       -12.5138895880        5.3207566269       -7.7213609504
 C       -10.0872442935        6.1366715758       -7.3347995251
 C       -11.3288331289        2.4352088639       -4.2453581882
 C        -8.9120456901        1.7209751701       -4.1222241499
 C       -11.7013390245       -2.3626672564        0.5056835492
 C       -10.6712224876       -0.1847822798        1.5131218967
 C        -5.2905319839       -3.8614070074       -1.4712039819
 C        -4.8433373047       -2.8354015804       -3.8229693133
 C        -9.6855102067       -8.2492316488       -6.0382971119
 C        -7.8718368368       -8.2451803224       -7.6281112224
 C        -8.8096401586       -1.4266780120       -9.9258412590
 C        -9.3462602632       -3.7623744223      -10.7174115756
 C        -3.9439236040        0.2556961912       -5.8750305195
 C        -3.3652844126       -0.0162158880       -8.2956850209
 C        -0.1386130671       -6.1434810861       -7.7436868362
 C         2.0482930023       -4.8366696232       -7.5143558331
 C         2.3130892695       -2.6219995756      -13.9698541548
 C         2.7210539757       -4.9909549243      -14.8206623363
 C         8.1410551655       -3.1123823605      -17.4321799552
 C         8.4895417113       -0.5810004747      -17.4672139095
 C         4.5330000891       -1.0156480171      -23.5044272338
 C         5.3785213144        1.2559094442      -23.1244659717
 C         4.6472357551        3.9111162727      -18.7437017038
 C         2.2877317628        4.6947751913      -18.4111909345
 H         4.5253423983        6.9301548242      -20.3885932581
 H         2.7922607683        6.7906217133      -20.0368727963
 H         3.3144535595        6.8951614759      -21.6711255568
 H         1.6012538791        3.2802539124      -21.2785120997
 H         1.2030086412        1.6662111617      -20.5875815960
 H         3.2937797926        2.2843365292      -22.6769682357
 H         1.8387061824        1.1963045987      -22.7003618441
 H         7.6441174796       -0.8293959983      -22.1335766259
 H         6.5795445760       -2.2330293386      -21.9088524275
 H         8.4577487029       -0.7231055967      -19.9995810245
 H         8.3011664102       -2.5286347211      -20.4037538873
 H         7.1460871973       -0.8792108728      -14.6540873939
 H         7.3912195498       -2.6594741475      -14.7832646277
 H         4.7573971306       -1.2708491463      -14.3033070027
 H         5.6342574587       -2.1711912951      -13.1015848138
 H         3.5687854685       -5.6815741394      -11.0093417408
 H         2.3085820354       -5.8234433489      -12.2501820817
 H         1.2025281366       -3.8786737608      -11.1648696740
 H         2.5856387008       -3.6646581531      -10.0802034149
 H         0.6645474706       -2.3520168467       -6.8047395113
 H        -0.7819016480       -3.5035637587       -6.4654079146
 H        -1.5677074954       -1.7770466479       -8.5705040004
 H        -1.0437713867       -0.7106815777       -7.2643904040
 H        -4.3149889173       -3.5825197408       -7.4189477871
 H        -4.5729563770       -2.5092316323       -8.9260779211
 H        -6.9777949367       -3.8503213749       -7.5431394654
 H        -5.9433589698       -4.6216018486       -8.6165253793
 H       -10.9547922227       -4.5490898933       -8.7999790359
 H       -11.3273048943       -3.4117264745       -7.4695350460
 H       -11.0368479254       -5.9385424775       -6.6747785944
 H        -9.9555004303       -4.6171375213       -5.8895734083
 H        -7.8988786440       -7.5252685676       -3.5518987537
 H        -8.7650090237       -6.1202847282       -3.9207747664
 H        -5.7293815210       -6.1545317973       -3.8110358938
 H        -6.5710270947       -5.9275939798       -2.2530235043
 H        -6.0899256164       -0.9343196744       -0.7712672708
 H        -6.8674117625       -2.4074562583       -0.4118464851
 H        -8.5406835355       -0.2993744214       -1.8446197933
 H        -8.2335474145       -0.0065183324       -0.0009285242
 H       -13.2367297447       -1.2109951786       -1.8241996670
 H       -11.9048686197       -2.1865610574       -2.2228674108
 H       -12.6755634742        0.5606356023       -3.3199363521
 H       -12.6479282359       -1.0566248580       -4.2003067516
 H       -12.2337980409        1.6222493316       -6.5973945568
 H       -11.5632259753        0.4184360230       -7.6212297097
 H       -12.2582999859        2.6348403406       -8.6354453639
 H       -10.4771543536        2.0718112168       -8.9024766912
 H       -10.4872856803        6.9446307512      -10.7606649723
 H       -11.6350802734        7.1314815943       -9.4357175786
 H       -12.0712992849        6.0971806631      -10.7678317591
 H       -12.5415935847        5.1823235631       -6.6099271963
 H       -13.0976658644        4.6286038867       -8.3242693806
 H       -12.7121373467        6.2853427645       -7.9901139314
 H       -10.5945261834        6.7043298503       -6.5377792693
 H        -9.5549166639        6.7589154929       -8.0711781203
 H        -9.3831988455        5.5669941649       -6.8221065541
 H       -11.1223299982        3.2805200525       -4.9157364296
 H       -11.1608727064        2.7503888306       -3.2451738864
 H       -12.3860287420        2.2434843312       -4.3206020841
 H        -8.1066059086        1.2742894172       -4.6493052685
 H        -8.8567193770        1.3519781026       -3.0564467953
 H        -8.7738591198        2.7917183263       -4.2040652146
 H       -12.5895521647       -2.3683391448        1.2197952356
 H       -10.9978838182       -2.9978422332        1.1004272834
 H       -11.8530712769       -2.9920846444       -0.3521404123
 H       -10.1217227092       -0.7932982538        2.2712720923
 H       -11.7305574758       -0.0965937729        1.8497308145
 H       -10.2145392074        0.7567654001        1.2828492112
 H        -4.9930010794       -4.8514475604       -1.5649051526
 H        -5.9719082648       -3.9986566579       -0.6023676722
 H        -4.3609743616       -3.2909945658       -1.1995698969
 H        -3.9855337502       -3.5953178056       -3.6980954358
 H        -4.4105682672       -1.8934767567       -3.5762112564
 H        -5.3350014414       -2.9096768740       -4.8183313183
 H       -10.0514299644       -8.0595578673       -5.0526819069
 H        -9.4095017932       -9.2570382275       -6.0715464632
 H       -10.5408416981       -8.2489869813       -6.7684498701
 H        -7.9635904113       -9.3576851089       -7.4918516483
 H        -6.7956049734       -7.9698642001       -7.7711779611
 H        -8.3156207769       -8.0217810489       -8.6184621851
 H        -7.9515094349       -1.2027106861      -10.5561446300
 H        -8.7283588936       -0.7823464195       -9.0464620036
 H        -9.7724898337       -1.2210602133      -10.3007024473
 H       -10.4033030673       -3.4352509738      -10.8280268115
 H        -9.2803357306       -4.8267463165      -10.4726529411
 H        -8.8494751420       -3.4491326861      -11.6943560492
 H        -2.9624038487        0.6841861382       -5.5925382493
 H        -4.4260102842       -0.1804464913       -4.9367315113
 H        -4.6389205150        1.0719828707       -6.1861094894
 H        -2.5656680664        0.6978478343       -8.0930838099
 H        -4.2948200041        0.5198555078       -8.6758338389
 H        -3.0353505465       -0.5955237186       -9.1726547902
 H        -0.4976903942       -5.8494640849       -6.7530843523
 H         0.4693775749       -7.1219378421       -7.7019374982
 H        -0.9281208903       -6.3550292666       -8.5344033979
 H         1.8507497277       -4.2598500167       -6.5508416104
 H         2.8526648564       -4.2106158566       -7.9726537451
 H         2.5851423740       -5.7894134136       -7.3022536597
 H         2.9036104045       -1.6394047115      -14.0605136467
 H         1.7203905228       -2.6007011511      -13.1103753803
 H         1.7761865610       -2.6515723850      -14.9842777767
 H         3.4348550860       -5.8316194435      -14.8311901987
 H         2.4886626746       -4.6831327676      -15.8459674737
 H         1.8122774404       -5.2977541143      -14.3286775977
 H         8.3667250572       -3.5702445080      -18.3221334315
 H         7.5642724254       -3.6948570615      -16.6922592258
 H         9.0433933772       -2.8818418553      -16.9207316439
 H         9.2640190711       -0.6371874857      -18.2239906399
 H         9.1096009319       -0.5928687614      -16.4776328843
 H         8.0225119783        0.3782038942      -17.5832133241
 H         4.4294157217       -1.9937589413      -22.9561932188
 H         5.3058071776       -0.9743030353      -24.2198319762
 H         3.5303669089       -0.7093322396      -23.7653780532
 H         4.8429537382        1.3089508879      -24.1059592361
 H         6.4220551422        1.1947981469      -23.5489209323
 H         5.2954732468        2.1170801802      -22.5285421280
 H         5.1426574137        4.9053722234      -18.6005778140
 H         5.2990517358        3.3222329588      -19.3946519702
 H         4.5575647798        3.3801356067      -17.7917466176
 H         2.8353124881        5.5380942542      -17.8604205788
 H         1.6892738532        3.9335915730      -17.8574021878
 H         1.6272505378        5.2691143533      -19.0899927379
 Na       -8.1556703319       -1.5334275182       -5.3948532172
 Na        4.1397922319       -0.3442948318      -18.6343336021
