232

 C         3.7689138043        6.2559310559      -20.5706272829
 C         3.6915131110        4.8242160213      -20.8307787180
 O         3.8962414562        4.2590275842      -21.8731350267
 C         3.4350583367        4.0227545057      -19.4631852318
 C         2.8981665651        2.6064446651      -19.7220931268
 O         3.2552571736        1.6880872590      -18.9810499846
 C         1.7346515369        2.3895675426      -20.7966258764
 C         2.3977464474        1.7407689122      -22.0150178660
 C         3.3874385908        0.5608152198      -21.6475306679
 O         3.0699596403       -0.2292128094      -20.7924861020
 C         4.8081767320        0.2819800039      -22.4137621833
 C         5.9069899265        0.0104558295      -21.3118962276
 O         6.0905712427        0.8020737019      -20.3016723494
 C         6.8501293255       -1.2139773141      -21.4177741457
 C         7.7798091730       -1.2468331647      -20.2123752646
 C         6.9359462813       -1.6298084659      -19.0405063153
 O         5.8730896677       -2.2145278253      -19.2700178264
 C         7.4664009867       -1.6834048708      -17.6040272308
 C         6.2805524084       -1.4655203139      -16.5613556526
 O         5.1537769252       -0.9674835280      -16.7995982735
 C         6.6106488988       -1.6037831936      -15.1070480509
 C         5.5651671050       -2.2229371860      -14.1976780535
 C         4.6990984133       -3.3019934814      -14.8232540458
 O         4.9875282539       -3.7791021740      -15.8978793267
 C         3.3426928074       -3.6638054705      -14.1754067646
 C         3.5439001052       -3.8171205984      -12.6051529799
 O         4.2453533790       -3.0990824707      -11.9635219771
 C         2.6864151241       -4.9369664359      -11.8676104264
 C         1.5788952172       -4.4696085443      -10.8500149351
 C         1.2770369471       -5.6101021728       -9.8951794475
 O         1.1811418497       -6.8091084232      -10.0614188214
 C         0.7308464154       -4.9487150662       -8.4241854449
 C        -0.0800324240       -3.5607421985       -8.6318598144
 O        -0.5187091424       -3.1794754738       -9.6852796135
 C        -0.3739997931       -2.8348172975       -7.3550544672
 C        -1.3382121249       -1.5771101752       -7.5721754371
 C        -2.6393516673       -1.7091128368       -6.7728791024
 O        -2.6640466871       -2.5979835685       -5.9694353040
 C        -3.9006386748       -0.8918172251       -7.1060302208
 C        -5.1670469448       -1.6265558650       -7.2796327289
 O        -6.2083031568       -1.2720333340       -6.7447843256
 C        -5.0855637934       -2.9663455244       -8.0499554941
 C        -6.4419905952       -3.6170228714       -8.1422626767
 C        -7.3083859420       -3.3086060035       -9.4104600902
 O        -6.7879418873       -3.2201825136      -10.4826444903
 C        -8.8670933189       -3.1093328256       -9.3440415069
 C        -9.5633820823       -3.2514866660       -7.9993348901
 O        -9.3154835632       -2.4115210141       -7.1297726986
 C       -10.7957198690       -4.2678742118       -7.7304222012
 C       -10.3905688132       -5.3374227030       -6.7306297687
 C        -9.1282609710       -6.0761059065       -7.2666424142
 O        -8.5599455669       -5.7582683168       -8.3291426241
 C        -8.5285359477       -7.2861116362       -6.4473396085
 C        -7.5705950376       -6.5488579719       -5.4776443940
 O        -6.6063666855       -5.9121445311       -5.8849671287
 C        -7.8089708927       -6.6345656335       -4.0297227629
 C        -6.8577404534       -5.7418062906       -3.2257701357
 C        -6.8088685847       -4.2867508075       -3.5777054418
 O        -7.2961498523       -3.8300166026       -4.5896069217
 C        -5.9105862089       -3.3762992306       -2.6607510598
 C        -6.6531679718       -2.0074805919       -2.2732036753
 O        -7.1314774472       -1.2931118217       -3.1069533889
 C        -6.7993790198       -1.5768866097       -0.7299840943
 C        -8.1176624209       -0.8257499085       -0.4357767580
 C        -9.3613563248       -1.7856688785       -0.2617330430
 O        -9.2086698663       -2.9757279261       -0.4913772378
 C       -10.6817864793       -1.0426982790        0.0878642098
 C       -11.2080871257       -0.4250902752       -1.2245016306
 O       -11.2902493229        0.7610932746       -1.4102279071
 C       -11.9997435680       -1.2734035075       -2.2348894244
 C       -12.0652764886       -0.3727084966       -3.5068496516
 C       -10.6422550634       -0.1722339499       -4.0995965843
 O        -9.9400993215       -1.1632939654       -4.2053284410
 C       -10.1583521742        1.2917350127       -4.5460014031
 C       -10.0375795488        1.0746317232       -6.1378535547
 O        -9.0209794223        0.5849555822       -6.4674146132
 C       -11.2818443904        1.2355490563       -6.9254424004
 C       -11.2011700355        2.3738921676       -7.9766875108
 C       -10.6287119809        3.6627582539       -7.3871061513
 O        -9.9434719823        3.6459980686       -6.3743844542
 C       -10.9999298653        4.9977430916       -8.0110521208
 C       -10.7929503348        5.0155038570       -9.5789099590
 O       -10.6539176761        3.9652642772      -10.1539117512
 C       -10.6617002049        6.4013682718      -10.3166610765
 C       -12.4996595598        5.2695601959       -7.7869856270
 C       -10.1562537527        6.1130857425       -7.3350161690
 C       -11.1772963443        2.4313357569       -4.0626782613
 C        -8.8133564691        1.5360020776       -3.7467568945
 C       -11.7406848050       -1.9827648566        0.6429061300
 C       -10.5318951757        0.1634736954        1.1469507824
 C        -5.2790024176       -4.0741563848       -1.3448828701
 C        -4.7210767550       -2.8796673353       -3.5851024009
 C        -9.5804418949       -8.1747502689       -5.7138015586
 C        -7.6897826674       -8.2543578689       -7.2970316071
 C        -8.9135748599       -1.5720635066       -9.6623375117
 C        -9.4532667940       -3.9744930673      -10.4845279590
 C        -3.9550099511        0.0485873064       -5.8746532247
 C        -3.8414646464       -0.0726372103       -8.3821231303
 C        -0.2037275927       -5.9966624956       -7.7607441565
 C         2.0355526263       -4.7626896425       -7.5758734766
 C         2.3670687340       -2.4572192985      -14.4417053273
 C         2.8068804247       -4.9731343545      -14.8437794619
 C         7.9865210372       -3.0868142519      -17.3437064849
 C         8.4720071719       -0.5546225375      -17.2165354834
 C         4.5275136015       -1.0299250714      -23.2895973308
 C         5.1813976695        1.4898687240      -23.2567675713
 C         4.7680714002        3.9874856796      -18.6412438725
 C         2.3166727185        4.7502480501      -18.6965990577
 H         4.2423865333        6.4684869144      -19.6125730584
 H         2.8203471680        6.7045732801      -20.6906792429
 H         4.4316332774        6.8494209353      -21.2475171127
 H         1.3341788835        3.3171184214      -21.1987245912
 H         1.0091728353        1.6746440980      -20.3830432956
 H         2.7729911853        2.4806816757      -22.6986575116
 H         1.5487158130        1.1561346637      -22.3644436510
 H         7.5289995736       -1.0163521179      -22.2312572448
 H         6.3629029949       -2.1709050430      -21.6325885636
 H         8.1918606144       -0.2040352224      -19.9964762361
 H         8.5126264129       -1.9519090750      -20.3196904664
 H         6.7505890588       -0.5747740856      -14.7523275142
 H         7.5457791712       -2.2008698400      -14.9890329921
 H         4.8739904720       -1.4490890779      -13.7875880920
 H         6.0761770672       -2.5606880153      -13.2721480629
 H         3.4307201316       -5.4797863940      -11.3305666113
 H         2.2058665048       -5.6109305858      -12.5009243478
 H         0.7153568256       -4.2949099567      -11.4791334112
 H         2.0017362353       -3.5672986550      -10.3525582992
 H         0.5598817294       -2.4845604964       -6.9848006254
 H        -0.8282129270       -3.4804837105       -6.6087388041
 H        -1.5176097025       -1.3146469946       -8.6016127108
 H        -0.7871811897       -0.7194214727       -7.0707090590
 H        -4.3622824950       -3.6019593629       -7.5555615374
 H        -4.7665943721       -2.5813286593       -9.0381519246
 H        -7.0329230370       -3.2864044168       -7.2509044904
 H        -6.3112269419       -4.7456102678       -8.2232901507
 H       -11.1675788507       -4.7415963924       -8.6334171291
 H       -11.6121479396       -3.7879919112       -7.2792624585
 H       -11.2957435815       -5.9093583265       -6.6502459147
 H       -10.0882217040       -4.9052216936       -5.7715992797
 H        -7.6583085271       -7.6156355317       -3.5653941946
 H        -8.7902421915       -6.4266382186       -3.6558341099
 H        -5.8472945617       -6.0252870937       -3.3849874449
 H        -7.0691834161       -5.9348260809       -2.1467457899
 H        -5.8926353060       -0.8516860785       -0.5252647984
 H        -6.7141923284       -2.4021420971       -0.0467077810
 H        -8.5075804839       -0.3487508534       -1.2869194511
 H        -7.8814193189       -0.1862098962        0.4255800299
 H       -13.0101230301       -1.5288782628       -1.8212256206
 H       -11.6196352785       -2.2685685788       -2.4665201604
 H       -12.4662174355        0.6073311936       -3.1906785087
 H       -12.5926716612       -0.7569113467       -4.3130159096
 H       -12.1959301854        1.3099343719       -6.3653805789
 H       -11.4362917166        0.3444622130       -7.4800230822
 H       -12.0983280453        2.6256276209       -8.4744107591
 H       -10.4857539474        1.9944461396       -8.6075804224
 H        -9.6112873240        6.7685973923      -10.0314301349
 H       -11.4365262556        7.1101545662       -9.8785046131
 H       -10.8673187758        6.2827185010      -11.3682979323
 H       -12.6082584081        5.3650267722       -6.6810972587
 H       -13.0654282211        4.5077808221       -8.3446251318
 H       -12.6747580141        6.1976250497       -8.2465523637
 H       -10.8181749815        6.9427010323       -7.0545789782
 H        -9.4111829262        6.3251508415       -8.0962504349
 H        -9.5357304080        5.8169955773       -6.4774738734
 H       -10.5939630192        3.4016979797       -3.9696447032
 H       -11.5795496624        2.2053213117       -3.0921959020
 H       -12.1198601873        2.6962796736       -4.5995208234
 H        -8.2662604763        0.6087515819       -3.5769260506
 H        -8.9285626976        2.2313509140       -2.8827532697
 H        -8.1158956844        2.0469264322       -4.4911266158
 H       -12.6612026831       -1.3922826454        0.4141243113
 H       -11.7897929710       -2.3149141518        1.6843889835
 H       -11.8660233529       -2.8344043497       -0.0041092402
 H       -10.2653394720       -0.2381867585        2.1436545500
 H       -11.5061188918        0.5505162001        1.2000251833
 H        -9.9286710710        0.8929138664        0.6841123513
 H        -4.4695442185       -4.7083365300       -1.6172589689
 H        -5.9863137775       -4.7406209414       -0.8485788125
 H        -4.7240780618       -3.3988472331       -0.6880411278
 H        -4.6840266423       -3.4867866311       -4.5098209371
 H        -3.7997770214       -2.9619354294       -3.0567807074
 H        -4.9667119065       -1.8891142463       -3.8236700400
 H       -10.3964345849       -7.6011198902       -5.2784269944
 H        -9.1081701056       -8.7482207262       -4.9277266713
 H       -10.0550116128       -9.0081768972       -6.2964912644
 H        -6.7647134631       -8.4262368943       -6.8258647442
 H        -7.5300591187       -7.9265584389       -8.3047257534
 H        -8.1275785394       -9.2222506993       -7.3979195758
 H        -8.6974481477       -1.4468713655      -10.7771295376
 H        -8.0738924404       -1.0234877259       -9.1931804993
 H        -9.8722392271       -1.0719224856       -9.4032510437
 H       -10.5200423936       -3.7813258696      -10.6271760572
 H        -9.2226777782       -4.9855165239      -10.3039592656
 H        -8.8170252232       -3.7355133806      -11.3080754350
 H        -3.0358470720        0.5347999986       -5.7073136891
 H        -4.1972237373       -0.5493557921       -5.0067413356
 H        -4.7198503212        0.7455799912       -5.9991186613
 H        -2.8913487349        0.3439335242       -8.4882513603
 H        -4.5323467287        0.7567550941       -8.4048860933
 H        -4.0176692518       -0.6570892410       -9.3003932941
 H        -0.3278628907       -5.8914134356       -6.7581805265
 H         0.2076463828       -7.0292871522       -7.9642397686
 H        -1.1044503371       -5.7430538296       -8.3162180315
 H         1.9035881138       -4.7269242142       -6.5034738628
 H         2.6368360198       -3.8431724325       -7.7942708337
 H         2.6704577199       -5.5659171458       -7.8165952607
 H         2.1377709432       -2.0321511969      -13.4370431915
 H         1.5092085803       -2.7954028071      -14.9922970654
 H         2.8085659921       -1.6479475051      -15.0362532282
 H         3.4962358987       -5.7370229001      -14.4606715096
 H         3.1006081953       -4.8611871081      -15.8693806492
 H         1.8029975722       -5.3114035155      -14.6428582767
 H         8.9662125696       -2.9690945852      -17.7069330718
 H         7.3901968078       -3.8259677670      -18.0112533327
 H         8.0926669591       -3.3559496210      -16.2916713618
 H         9.1585944113       -0.5283915121      -18.0430769374
 H         9.0367470629       -0.6488924933      -16.2468649909
 H         8.0545737349        0.4184737026      -17.2149302188
 H         3.9524658510       -1.7506969887      -22.7010738798
 H         5.5261929387       -1.3718369112      -23.5429121246
 H         3.8312878785       -0.7064052819      -23.9724350077
 H         4.4125239928        1.9039766842      -23.9600065430
 H         6.0053871026        1.1349403387      -23.8909565703
 H         5.4700802316        2.2801405708      -22.6004446666
 H         5.5131070507        4.6994389248      -18.9666471716
 H         5.0772743242        2.9359814023      -18.5916872426
 H         4.5846064907        4.4067579850      -17.6202395689
 H         2.6036950961        5.7961356729      -18.6054729926
 H         2.2667840927        4.4403782941      -17.6203058526
 H         1.4360792510        4.5703505585      -19.2236877357
 Na       -7.9496528635       -1.4977064233       -5.4166074416
 Na        4.1821726649       -0.6176157716      -18.8778044724
