232

 C         4.0494040060        6.3801875322      -20.8158597888
 C         3.7730656655        4.8552973282      -20.7541843786
 O         3.8725512198        4.1903228948      -21.7736360732
 C         3.4280867381        4.0453504342      -19.4290157344
 C         2.9637650552        2.5606865691      -19.6625724105
 O         3.3479980862        1.7779293842      -18.8170838921
 C         1.8362537067        2.2741546649      -20.6905159212
 C         2.4469873630        1.6626236893      -22.0611422550
 C         3.3298438415        0.4732412123      -21.7596126540
 O         2.9908726112       -0.3600765450      -20.9190011672
 C         4.7500105448        0.3295864252      -22.5370227137
 C         5.7570245619        0.2260489903      -21.2733894890
 O         5.6671578651        0.9402673182      -20.3353011394
 C         6.9344060207       -0.7345625774      -21.4737637432
 C         7.6703275603       -1.1088601051      -20.1240853556
 C         6.8736190712       -1.7888251519      -18.9895399349
 O         5.7766790429       -2.2496107096      -19.3013333915
 C         7.4336812450       -1.8077008738      -17.6120347546
 C         6.2721327713       -1.5222612191      -16.5302110154
 O         5.2855341121       -0.9600098049      -16.8875295343
 C         6.5909880440       -1.4501771829      -15.0324941249
 C         5.4426978885       -2.0862784705      -14.1119495242
 C         4.8270900046       -3.2812741899      -14.7876251945
 O         5.3166189019       -3.6517943172      -15.8430677027
 C         3.3820136426       -3.6705116618      -14.2793340172
 C         3.4440670832       -3.9688298907      -12.6989496298
 O         3.7800979849       -3.0365779800      -11.9907937832
 C         2.7444448017       -5.1044186838      -11.9932063072
 C         1.6274946331       -4.5017091728      -11.0443370487
 C         1.1816596019       -5.4700449557       -9.9071509658
 O         1.4350915997       -6.6561359107      -10.0175302176
 C         0.5674396189       -4.9421779390       -8.5592947031
 C        -0.0558918412       -3.5624723364       -8.7085919227
 O        -0.4397101212       -3.1796897063       -9.8333724217
 C        -0.2427200724       -2.6592647050       -7.4759059152
 C        -1.2399045426       -1.5245647455       -7.6616419986
 C        -2.6120934417       -1.7246789770       -6.9905573898
 O        -2.7975041093       -2.6794304510       -6.2152070854
 C        -3.8068386545       -0.8143080233       -7.2630476577
 C        -5.1248184743       -1.7936740311       -7.2409666712
 O        -6.0486134750       -1.1890743414       -6.7493291737
 C        -5.3152569510       -3.1010533549       -8.0043235818
 C        -6.7624076206       -3.6704574444       -7.8605723337
 C        -7.4423513026       -3.3385576351       -9.2272132158
 O        -6.7642575999       -3.4277403205      -10.2359657584
 C        -9.0828638466       -2.9676089645       -9.3738632938
 C        -9.7593232793       -3.3456351548       -7.9261061130
 O        -9.4031766371       -2.7052784424       -6.9605483613
 C       -10.8351713860       -4.4527027635       -7.8842230045
 C       -10.3438504228       -5.4858646137       -6.7892595918
 C        -9.0423455344       -6.1564810533       -7.2748425337
 O        -8.5425320019       -5.9661781789       -8.3604730376
 C        -8.4747059051       -7.2891533356       -6.3521113650
 C        -7.4865792380       -6.5431521782       -5.3817040851
 O        -6.4620443918       -6.0633895655       -5.8694094042
 C        -7.9638968064       -6.3636600543       -3.9585804312
 C        -7.0004097064       -5.5973554927       -3.0076974455
 C        -6.8275142470       -4.1559380948       -3.4193559173
 O        -7.4690418650       -3.7093267191       -4.3594819020
 C        -5.8492214530       -3.3746923436       -2.5521562357
 C        -6.6866770538       -2.0669481966       -2.0306444441
 O        -7.1817391427       -1.3030145899       -2.8568810311
 C        -6.9281165815       -1.9398514619       -0.5255492572
 C        -8.0408574454       -0.9003243477       -0.2815742843
 C        -9.3577101416       -1.6490863143       -0.3567724580
 O        -9.3541222931       -2.8259182357       -0.6489669232
 C       -10.6468270752       -0.9500371994        0.1267885267
 C       -11.2363778143       -0.2551233704       -1.2255988246
 O       -10.9086882052        0.8835314832       -1.5420943643
 C       -11.9871722894       -1.1709086125       -2.1589106364
 C       -12.1359996730       -0.6582806287       -3.5722130529
 C       -10.6904128555       -0.3122151383       -4.1642644817
 O        -9.9568006256       -1.2732063850       -4.2718097262
 C       -10.2007503195        1.1144995913       -4.4051453245
 C        -9.9789868370        1.0728502825       -5.9327893371
 O        -8.8744566084        0.6023368296       -6.3860890839
 C       -11.2278872107        1.1968336200       -6.8778349328
 C       -11.0705155062        2.2886314834       -7.8884396587
 C       -10.6288357535        3.6630169368       -7.3233976812
 O        -9.8124499177        3.6187887033       -6.4514606815
 C       -11.0234397268        5.0007314231       -7.9853547351
 C       -10.7262353259        4.9426677167       -9.6358873336
 O       -10.9658140192        3.8963587183      -10.1654526067
 C       -10.3007618045        6.2397843934      -10.3153282835
 C       -12.5491454095        5.3267215776       -7.8543660867
 C       -10.2414311497        6.1655824780       -7.3763576647
 C       -11.1042627686        2.3154859623       -3.9637427700
 C        -8.8180500872        1.3814030952       -3.7867373665
 C       -11.5811876118       -2.1243770076        0.7882576977
 C       -10.2475718508        0.1956063563        1.1288678946
 C        -5.3135926035       -4.1975953200       -1.3140362551
 C        -4.6501871267       -2.8415963516       -3.4295747677
 C        -9.5547963016       -7.9434555786       -5.4832207575
 C        -7.6239083278       -8.2939324660       -7.1643463151
 C        -9.3037945948       -1.4712162640       -9.6702433076
 C        -9.6085597809       -3.7915739190      -10.5435290291
 C        -4.0181556321        0.1257898196       -6.0981301463
 C        -3.6683825556        0.0735512379       -8.5029435314
 C        -0.2583585008       -5.9958076816       -7.8325706353
 C         1.8557552451       -4.6729971854       -7.7076118801
 C         2.2844127260       -2.4690542906      -14.5186650971
 C         2.8847276910       -4.9034055070      -15.0480360017
 C         8.1844630850       -3.1822981655      -17.2822050119
 C         8.4962818173       -0.7196638327      -17.4006631590
 C         4.6246888907       -0.9900951853      -23.4328092328
 C         5.0957946324        1.5892333639      -23.3946987457
 C         4.7294193350        4.1637545992      -18.6262899290
 C         2.2638754912        4.7662908397      -18.7358482516
 H         4.4134509817        6.9203831571      -19.9223427344
 H         3.1680819145        6.9426317561      -21.2963682168
 H         4.8543856863        6.6115703656      -21.5154516424
 H         1.3047428047        3.2131937484      -20.8502645528
 H         1.2883707599        1.4705312021      -20.2252292376
 H         3.1288472439        2.3991702081      -22.4679533682
 H         1.6258541359        1.2563985890      -22.6857785485
 H         7.7350109339       -0.2789885897      -22.1329865259
 H         6.5959615339       -1.5629893580      -22.1109361739
 H         7.9851692709       -0.1681684458      -19.7227821240
 H         8.5723403050       -1.8096919941      -20.3092043000
 H         6.5482112483       -0.3720162599      -14.8028551638
 H         7.5329367442       -1.9207662770      -14.7857985054
 H         4.6949013629       -1.4028968957      -13.7352676758
 H         5.9246185051       -2.3651959740      -13.1824090940
 H         3.5316762512       -5.4909306991      -11.2952511376
 H         2.3514176240       -5.9173900229      -12.6817320005
 H         0.7388726405       -4.2344244719      -11.6390726992
 H         2.1697582613       -3.6528131305      -10.7204921546
 H         0.7661239751       -2.1533192071       -7.2460194691
 H        -0.4351199384       -3.2839351588       -6.5747714278
 H        -1.5090496147       -1.4958285652       -8.7637361583
 H        -0.7701519765       -0.5954677226       -7.3990879787
 H        -4.5853196891       -3.6852695300       -7.4023871452
 H        -5.0702105376       -2.9767795898       -9.0606925815
 H        -7.3250597607       -3.2919867969       -7.0325682568
 H        -6.6977662417       -4.7073294004       -7.8505109551
 H       -10.9200936216       -4.8317634358       -8.8945421025
 H       -11.8524237003       -4.0339461022       -7.6045717945
 H       -11.1279904188       -6.3043811615       -6.6192646077
 H       -10.1773539536       -4.9469890963       -5.8199158876
 H        -8.1315862530       -7.2985315085       -3.4182277653
 H        -8.9402047554       -5.8299918282       -3.8375716541
 H        -5.9713342227       -6.0947993342       -2.9137304290
 H        -7.4258630248       -5.5786125730       -2.0090028850
 H        -6.0475705455       -1.7880832111        0.0111292984
 H        -7.3066723009       -2.9873087743       -0.2980910694
 H        -7.9333293235       -0.0266736105       -1.0127644245
 H        -7.9620486056       -0.6249748423        0.7695551703
 H       -12.9650763749       -1.4746630387       -1.8014956676
 H       -11.4367180531       -2.1381623925       -2.1428097009
 H       -12.8909940637        0.0955950930       -3.6037196483
 H       -12.4964825543       -1.5063482975       -4.2393097866
 H       -12.1469633233        1.5260921464       -6.3365887596
 H       -11.4945775193        0.2059669097       -7.3564214490
 H       -11.9874037772        2.4284558409       -8.5010811231
 H       -10.1554571682        2.0263853083       -8.5528265156
 H        -9.3446349332        6.4900192404       -9.9752891882
 H       -11.0314564340        7.0052041930      -10.1613063455
 H       -10.3139434865        5.9266548632      -11.3835583929
 H       -12.7908818636        5.5774834274       -6.8627702932
 H       -13.0188681114        4.4628209511       -8.2687463508
 H       -12.7573588765        6.2323528633       -8.5360887339
 H       -10.5112527729        7.0530482353       -7.8921457003
 H        -9.2249882783        5.9268417658       -7.1679025526
 H       -10.6032972040        6.2870414308       -6.3589199495
 H       -11.0387161284        3.1473950422       -4.6088343116
 H       -10.8428696286        2.6588544413       -2.9330621830
 H       -12.1256261000        2.0606657653       -3.8072675052
 H        -8.2560047461        0.4532821754       -3.9561851244
 H        -9.0498783881        1.5832536994       -2.7537924348
 H        -8.2030388096        2.1900276549       -4.1171130039
 H       -12.6403019340       -2.1233439228        1.0087196396
 H       -10.9739833937       -2.3643594379        1.6976229741
 H       -11.3759625665       -3.0883010713        0.1889810813
 H        -9.6749135405       -0.2204900034        1.9162360825
 H       -11.1134782688        0.7578693755        1.5209621189
 H        -9.7014896860        0.8380286509        0.4012838613
 H        -4.6830322366       -5.1102008150       -1.6041444988
 H        -6.1109550903       -4.4697799043       -0.6381855197
 H        -4.6180283999       -3.5696139343       -0.7826631567
 H        -4.1654168974       -3.6902777898       -3.8641828932
 H        -3.9291872325       -2.2625741819       -2.7459850899
 H        -5.1008639820       -2.1458679805       -4.1946146521
 H       -10.0204401002       -7.2894616095       -4.7488308600
 H        -9.1948130320       -8.8640158358       -4.9927234107
 H       -10.3774463337       -8.2674985565       -6.0421210883
 H        -6.5210528491       -8.2327949177       -6.9823576637
 H        -7.7949287251       -8.1165556454       -8.2430058507
 H        -7.9299551893       -9.3542526100       -7.0352209298
 H        -8.8031776243       -1.1244766263      -10.5718319454
 H        -8.9475384492       -0.8444291569       -8.8342874548
 H       -10.4036003856       -1.2974269020       -9.8795565675
 H       -10.6552738243       -3.5095833229      -10.5916338866
 H        -9.5234586899       -4.8815106445      -10.2887632904
 H        -8.9731028380       -3.6961388488      -11.4289004761
 H        -3.4661222692        1.0499832751       -6.4003798413
 H        -3.4929052214       -0.2586555379       -5.2351712021
 H        -5.0590879601        0.4301783206       -5.8211326644
 H        -3.1892151964        1.0707671893       -8.2698019614
 H        -4.5845786156        0.3798378024       -8.9803126338
 H        -3.0389874308       -0.3804841296       -9.2511113572
 H        -0.4049532190       -5.7115267596       -6.7193526917
 H         0.5125096629       -6.7377200292       -7.7748472719
 H        -1.2289378381       -6.2316721943       -8.3241574651
 H         1.6065522266       -4.1868874457       -6.7171321682
 H         2.5724452460       -3.9720283787       -8.2278683282
 H         2.4169170269       -5.6196371991       -7.4980033623
 H         1.5315212830       -2.4178528939      -13.7301436614
 H         1.9601480839       -2.5819667677      -15.6417948328
 H         2.7440724286       -1.5085757560      -14.6291666209
 H         3.4249261079       -5.8120476496      -14.9074726574
 H         2.8511069705       -4.6338771871      -16.0989443532
 H         1.8901176987       -5.0233422796      -14.6339066220
 H         9.1033142367       -3.3201364901      -17.8531484712
 H         7.5056651469       -3.9263989125      -17.4886474347
 H         8.4513447961       -3.0744096795      -16.2726985511
 H         9.4507661665       -0.9533690967      -17.9408373662
 H         8.5993127665       -0.4976809169      -16.3896931937
 H         8.1876949458        0.2967981850      -17.7830217987
 H         4.5786618545       -1.8310484642      -22.7808440055
 H         5.5756243048       -0.9450311883      -24.0002431788
 H         3.6290760405       -0.9789962021      -23.9564522029
 H         4.4287799117        1.7324813683      -24.2390600088
 H         6.1438396631        1.4824415984      -23.7067250041
 H         4.8527103275        2.5411118825      -22.8029269261
 H         5.4007117693        4.8957948364      -19.0634484873
 H         5.0848372921        3.1436741617      -18.6032121864
 H         4.6099372447        4.5914736894      -17.6539701270
 H         2.6294224054        5.7122615329      -18.3426661701
 H         2.1331163603        4.2655290580      -17.7781166545
 H         1.3233908020        4.7080273643      -19.3923979464
 Na       -7.8499780288       -1.4925634591       -5.3217228533
 Na        4.2912212813       -0.5453598612      -19.1310784231
