232

 C       -22.7467783696       -6.6941536434       -2.8912494741
 C       -21.4558440332       -5.9743094785       -2.9996632857
 O       -20.5154399494       -6.3348171751       -2.3190015525
 C       -21.3417545622       -4.8971576782       -4.1231033123
 C       -20.1968624143       -3.8847545134       -4.0305534298
 O       -19.8971881406       -3.3639642892       -3.0068015362
 C       -19.4402617930       -3.6148855698       -5.3191721856
 C       -18.3190255399       -2.6306987249       -5.1094291561
 C       -17.2682132677       -3.2311173435       -4.1329894259
 O       -17.0092192738       -4.4404465048       -4.2410303909
 C       -16.5373340121       -2.3984208293       -3.0356117166
 C       -16.2509060074       -3.4557729487       -1.8448062534
 O       -17.1081809737       -3.7749582180       -1.0568349115
 C       -14.8176025804       -4.0100566863       -1.6885078590
 C       -14.7568019032       -5.1832080930       -0.6259429995
 C       -15.4150721916       -6.3537251311       -1.2857798365
 O       -16.5764963173       -6.4712882290       -1.6401008999
 C       -14.4274276533       -7.6499372859       -1.5306493866
 C       -13.1581386557       -7.1005060056       -2.4956215212
 O       -13.4417332165       -6.3036922479       -3.3752134414
 C       -11.7545227756       -7.5843185085       -2.4130574157
 C       -11.4389549799       -9.0138985341       -2.8454701162
 C       -10.1663249646       -9.4904958548       -1.9960060753
 O       -10.1540458975       -9.3325564642       -0.8020190169
 C        -8.8713903324      -10.1511585084       -2.7254708544
 C        -8.1084076148       -9.0686495786       -3.4956089849
 O        -8.6237102441       -8.0046931280       -3.8356088926
 C        -6.5999227603       -9.2850953301       -3.7223451968
 C        -5.8991282132       -8.0144313445       -4.2128823720
 C        -6.0654002055       -7.6432021602       -5.6918302156
 O        -6.2701367083       -8.4649885447       -6.5822415727
 C        -5.7426107065       -6.1073077455       -6.0189096105
 C        -4.5909100606       -5.9591880425       -7.0679021024
 O        -3.5704028804       -5.4461766665       -6.6377555247
 C        -4.6553110233       -6.4139366723       -8.5611027818
 C        -3.9414372275       -5.2738656997       -9.4317642106
 C        -4.4305343250       -5.3100456319      -10.8430830026
 O        -4.4010945352       -6.3656900869      -11.4609966813
 C        -5.0867512753       -4.0170404499      -11.5240100387
 C        -4.0911911629       -2.8829296183      -11.4702015262
 O        -4.1392472731       -2.1229336405      -10.5139712611
 C        -2.9494494662       -2.7183746488      -12.5266493113
 C        -1.9699261085       -1.6322403556      -12.0657805142
 C        -0.6847812972       -1.7819419783      -12.8060722474
 O        -0.3129604085       -0.9714434812      -13.6334400863
 C         0.3870851246       -2.9238919085      -12.3545389043
 C         1.8284346155       -2.3505947545      -12.6113730180
 O         2.4469042051       -2.9195986194      -13.4547161262
 C         2.1854957673       -1.0869774145      -11.8900622112
 C         3.6918538765       -0.8097714742      -11.7493111045
 C         3.9061301970        0.5469187160      -11.0430854440
 O         3.2424807785        0.8225422729      -10.0960425980
 C         5.2300061679        1.3571163153      -11.3452846200
 C         4.9188877453        2.4332812075      -12.3750208686
 O         5.1441766525        2.1224751620      -13.5505946116
 C         4.1799899302        3.6171926511      -11.8610352360
 C         5.1618256513        4.7536297025      -11.4423369067
 C         5.7151467690        5.4981910686      -12.6839075425
 O         5.2657175999        5.2243741045      -13.7914834644
 C         6.8992255925        6.4467281910      -12.5080187324
 C         7.2211128496        6.8903995603      -14.0022548151
 O         6.6790401449        7.8917112850      -14.4098497733
 C         8.0705502723        5.9130249142      -14.9038020778
 C         8.1457873389        6.4197615113      -16.3907236620
 C         6.7834696954        6.4043548424      -17.0831545900
 O         5.9629288649        5.4799237366      -16.8475792335
 C         6.5879702044        7.3637553519      -18.3038711556
 C         7.8731793617        7.0325115941      -19.3229656022
 O         8.5790351453        7.9351299579      -19.8071125786
 C         7.9523398536        5.5663033439      -19.9341259717
 C         9.3531629225        5.2469882109      -20.4536281459
 C        10.0104683703        4.2141658144      -19.5646548685
 O        10.6856380994        4.4418028968      -18.6259953070
 C         9.9901360203        2.6550509442      -20.1275757013
 C         9.0658339495        1.7572822059      -19.1742373920
 O         7.8758645324        1.9358918739      -19.3822808766
 C         9.6094825563        1.0137534689      -17.9777968287
 C         8.6034228314        0.2535803408      -17.1686459633
 C         7.2713719219        1.0288440499      -17.0949075376
 O         7.2120930609        1.9646581188      -16.2897265313
 C         5.9000052681        0.4470771019      -17.8581778805
 C         5.1620080633        1.5925682168      -18.6803178462
 O         5.2758105279        2.7429032139      -18.2993679692
 C         4.1356920027        1.1885098894      -19.7835168616
 C         6.3995133091       -0.8212784183      -18.7308250529
 C         4.9476802768        0.0265554895      -16.7332216319
 C         9.4996926739        2.4835301307      -21.5445197367
 C        11.4618599092        2.1509908221      -20.0534007770
 C         5.3012453750        7.0857699385      -19.0457754908
 C         6.7455273729        8.8593808124      -17.9163456152
 C         6.4754937247        7.7271869309      -11.6814143622
 C         8.0840861432        5.7484784528      -11.9128711150
 C         5.6223646935        1.9088198669       -9.9989744370
 C         6.3839590647        0.2291510720      -11.8951423353
 C         0.2578262548       -3.3061225319      -10.8548253469
 C         0.2346926545       -4.2080903557      -13.1763475467
 C        -5.5538908818       -4.2565624527      -12.9383557313
 C        -6.2773000649       -3.7753273564      -10.6272865117
 C        -7.0090095211       -5.5771649466       -6.7581829895
 C        -5.4204754943       -5.1951994218       -4.8059589668
 C        -7.9394400623      -10.8363480590       -1.6489438382
 C        -9.2590297326      -11.2095105656       -3.8027329528
 C       -14.0325241667       -8.3269957902       -0.1798059077
 C       -15.2887705137       -8.6736952556       -2.3970976003
 C       -15.3425433592       -1.8178456485       -3.8382819454
 C       -17.2023029149       -1.2332774207       -2.2996028199
 C       -21.1055097177       -5.7302055431       -5.4387640153
 C       -22.6113082861       -3.9186490970       -4.3673142139
 H       -23.5260542855       -5.9136600116       -2.7947002942
 H       -22.6161721935       -7.3029779464       -2.0591336395
 H       -22.9691062782       -7.2669511899       -3.8143487393
 H       -20.2027828824       -3.1834441490       -5.9865053379
 H       -19.1644240849       -4.5973751507       -5.6271634130
 H       -18.7046493012       -1.7220634778       -4.6224362331
 H       -17.7645198880       -2.2943858860       -5.9726548690
 H       -14.1456624367       -3.2011105992       -1.4010881090
 H       -14.5629097434       -4.4529685596       -2.6757311014
 H       -15.3698239643       -4.8750104298        0.1962400524
 H       -13.7332339029       -5.4789373902       -0.2856852738
 H       -11.5480795174       -7.5362772356       -1.3583476330
 H       -11.0575660313       -6.9981389474       -2.9153535664
 H       -11.2482313964       -9.0878431637       -3.8951626818
 H       -12.2518338799       -9.7493148387       -2.6566066643
 H        -6.4411408186      -10.0184724544       -4.5911729503
 H        -6.1292998884       -9.6986800270       -2.7961470714
 H        -4.7995265989       -7.9295760401       -4.1150061169
 H        -6.3514357820       -7.2297851956       -3.6479622190
 H        -5.6518331017       -6.8281489541       -8.8600788036
 H        -4.0111312084       -7.3154441204       -8.6777090146
 H        -2.8665156007       -5.4310543439       -9.3168156636
 H        -4.1277012716       -4.3278332970       -8.8610900678
 H        -3.3390520437       -2.3163697116      -13.4070794589
 H        -2.3207274336       -3.5688653678      -12.8329136263
 H        -1.8144634369       -1.8092105976      -10.9324617671
 H        -2.4232311906       -0.6643556064      -12.2609704526
 H         1.6642458338       -1.0894940443      -10.9173529943
 H         1.8127273118       -0.3191205648      -12.5216592732
 H         4.0938155140       -0.8518230786      -12.7667041854
 H         4.1658244057       -1.3918790339      -10.9846243479
 H         3.5104916733        3.4726147738      -10.9577395223
 H         3.5867025268        4.1195113025      -12.7209018909
 H         6.0714362402        4.3390033291      -10.9497667671
 H         4.6383296186        5.4056844751      -10.7031176911
 H         7.9450544956        4.8736993065      -14.6435218067
 H         9.0962113870        6.1206217670      -14.5817691803
 H         8.7789662865        5.7946457308      -16.9850765855
 H         8.5447547127        7.4447458227      -16.4430472916
 H         7.3062176036        5.6844927180      -20.8427333072
 H         7.5289217384        4.7727918637      -19.3155551854
 H        10.0182162448        6.1156154439      -20.4808896678
 H         9.1350408021        4.9215041993      -21.4630760059
 H        10.2171930761        1.7062403620      -17.4091797043
 H        10.4839525423        0.4319774393      -18.3351856533
 H         9.0459892527        0.3299727686      -16.1593327582
 H         8.4787947637       -0.7840749529      -17.5695683304
 H         4.2274002148        1.6935888098      -20.7898025194
 H         3.1486184265        1.3527068854      -19.4203088864
 H         4.0747453251        0.0481859452      -19.7815278274
 H         5.5949289356       -1.1983068421      -19.2768691807
 H         6.7639979564       -1.6876123097      -18.1603606072
 H         6.9983432434       -0.3010345543      -19.4634768726
 H         3.9617666549       -0.2433886798      -17.1624706835
 H         4.8849137924        0.8604467489      -16.0486541611
 H         5.4981577046       -0.6866138170      -16.0896267562
 H         9.8424270776        1.4437260745      -21.7488016346
 H        10.0888237006        3.1488793991      -22.1207156937
 H         8.4256748568        2.5949028291      -21.6869752493
 H        11.5967655870        1.0744698468      -20.1693828340
 H        11.9557439521        2.4080809492      -19.0899047471
 H        11.9861330867        2.5588035889      -20.9414017804
 H         4.5484899895        7.4771803029      -18.3971331437
 H         5.0715334472        6.0307097668      -19.1013491963
 H         5.3210735440        7.5249985639      -20.0455041001
 H         7.5848204649        9.1183950774      -17.3311962282
 H         5.8831014638        9.3209118643      -17.3572566368
 H         6.8247978236        9.4886933178      -18.7759671431
 H         7.2156306373        8.5871177960      -11.6327480518
 H         6.4155522450        7.4056224426      -10.6612899599
 H         5.5264615013        8.2099191235      -11.9949134816
 H         7.8309006902        5.3267173888      -10.9763451685
 H         8.8964992466        6.4776313686      -11.7792339062
 H         8.3749907920        4.9253217955      -12.5446412826
 H         6.5095913674        2.5417767860      -10.0432541132
 H         5.8636429517        1.0132948288       -9.4032201563
 H         4.9255259562        2.6440070094       -9.5166766941
 H         6.2896323962       -0.6370518780      -11.2462206495
 H         7.2723116889        0.7253843229      -11.6396280952
 H         6.3581842601        0.0984519117      -12.9421357054
 H        -0.2286489481       -2.6398497660      -10.2366804539
 H         1.2319801776       -3.5531932492      -10.3772063711
 H        -0.3194884996       -4.2034940512      -10.6776563891
 H        -0.3283019216       -4.9367788324      -12.6310015148
 H         1.2115439516       -4.6069769646      -13.4133970919
 H        -0.2257512311       -4.1349497156      -14.1983151087
 H        -4.7765094822       -3.9744695231      -13.6620534560
 H        -6.4516807305       -3.7062463220      -13.3507121481
 H        -5.6747936680       -5.3395015000      -12.9743965893
 H        -6.7929297068       -2.7896228723      -10.7539983184
 H        -5.9176520793       -3.7413330928       -9.6257344184
 H        -7.1208781517       -4.4235580983      -10.6463180243
 H        -7.3628825611       -6.2701344533       -7.5733048455
 H        -6.8587566599       -4.6674777752       -7.3638310733
 H        -7.8221928848       -5.2909031106       -6.0264974567
 H        -6.4071170976       -4.8983797300       -4.3795938708
 H        -4.9604408328       -4.2934076395       -5.1651016457
 H        -4.8431722809       -5.6886837950       -4.0360956738
 H        -8.5597696827      -11.3196194914       -0.9347447892
 H        -7.3594969624      -10.1733479611       -0.9965840682
 H        -7.3232923717      -11.5279241732       -2.2140694740
 H       -10.1320826043      -11.8736957203       -3.6381555377
 H        -8.4189384421      -11.8183020773       -3.9629968234
 H        -9.5363197822      -10.6979082754       -4.7443284197
 H       -14.2949400025       -7.7445540974        0.6596135782
 H       -12.9636983166       -8.6546771682       -0.0269975757
 H       -14.4864223939       -9.2461260267        0.0389418085
 H       -15.4494895583       -8.2206043564       -3.3335155296
 H       -16.1503167133       -8.8563640230       -1.8141326112
 H       -14.7622290173       -9.5511034449       -2.5546366617
 H       -14.8973711042       -2.5823555651       -4.5074201979
 H       -14.5318825888       -1.5813124492       -3.2043703345
 H       -15.5824415734       -0.9698061273       -4.4811682630
 H       -18.1840970652       -1.5348594194       -1.7823565345
 H       -17.4353895015       -0.5091182178       -3.0648495017
 H       -16.5645802814       -1.0404791627       -1.5335778318
 H       -20.0787640362       -6.1726187082       -5.4154831067
 H       -21.1881946087       -5.2315288837       -6.3932747043
 H       -21.7620007295       -6.6134481038       -5.3868132914
 H       -22.6369266810       -3.4706521191       -5.3810965820
 H       -22.6044367124       -3.1421807755       -3.5950910774
 H       -23.5007916439       -4.4838427665       -4.2982657564
 Na      -18.6088640146       -5.1506727023       -2.2367150955
 Na        5.8869761153        3.6069339685      -15.5266631779
