232

 C         4.3298726623        6.2937335014      -20.9147136404
 C         3.8661169182        4.8764356659      -20.8428661765
 O         4.0938166568        4.2011214258      -21.8147412220
 C         3.4586638636        4.2094003179      -19.4945648463
 C         3.0869161551        2.6392141713      -19.5310866603
 O         3.5794909847        1.8812707630      -18.6996745980
 C         1.9181724294        2.1210872839      -20.4961167061
 C         2.4865761538        1.5873510132      -21.8026135157
 C         3.3493512367        0.3421356467      -21.7489526816
 O         3.0486074870       -0.5671997434      -21.0353542191
 C         4.6897915899        0.3410706010      -22.6325634681
 C         5.7830042824        0.3019495539      -21.5291255902
 O         5.5290373241        1.0549493870      -20.5424215002
 C         7.0835143298       -0.5584321656      -21.5498722372
 C         7.7751399015       -0.6170189296      -20.2341858636
 C         6.9720050717       -1.4133148146      -19.2082872856
 O         5.8733235446       -1.9186469728      -19.4174615259
 C         7.5857044334       -1.6773856050      -17.7205740254
 C         6.2894192035       -1.2893856362      -16.7153615238
 O         5.2889343928       -0.7403150634      -17.1388157864
 C         6.4857247226       -1.3028659566      -15.2042277667
 C         5.1894600474       -1.6681629253      -14.5300011922
 C         4.7999012869       -3.1265682870      -14.8364380778
 O         5.5891208670       -3.9361914786      -15.3023267450
 C         3.2620695262       -3.6782308345      -14.5540394237
 C         3.2365356012       -3.6715741730      -13.0728418902
 O         3.7662051499       -2.8126110935      -12.3912849397
 C         2.4885272826       -4.8316706479      -12.2416183148
 C         1.5537838511       -4.3626449391      -11.1173633087
 C         1.3322415225       -5.3842490711      -10.0530437538
 O         1.7816280912       -6.4901462433      -10.1970351084
 C         0.6012170596       -4.8262016196       -8.7002594339
 C        -0.1211148942       -3.4778102992       -9.0038481399
 O        -0.6712894205       -3.2207852130      -10.0280311254
 C        -0.1443081476       -2.3346870182       -7.9196248311
 C        -1.2877614234       -1.4014535898       -8.1562754792
 C        -2.6280797015       -1.8619511111       -7.5260747645
 O        -2.7466375400       -2.9049424630       -6.9753474187
 C        -3.8539403097       -0.8797344910       -7.6606414119
 C        -5.1336463602       -1.5441781979       -7.1871233806
 O        -5.8647323619       -1.0681781108       -6.3399628698
 C        -5.3241633635       -2.8960661039       -7.7119040522
 C        -6.8047511770       -3.3725352122       -7.6146379107
 C        -7.5050765180       -3.2073040267       -8.9528724563
 O        -6.9346807608       -3.0889681059      -10.0014057537
 C        -9.1380221777       -2.9584322006       -8.9834215606
 C        -9.9014298240       -3.5210501830       -7.7796635963
 O        -9.5930446454       -3.0478018678       -6.6797647230
 C       -10.7769174146       -4.8200572165       -8.0396820427
 C       -10.6296926496       -5.8728601911       -6.9117219229
 C        -9.2550150084       -6.6550887639       -7.1542901397
 O        -8.5867897557       -6.2559177543       -8.0830827758
 C        -8.5336824385       -7.6536669497       -6.1399300130
 C        -7.6704267695       -6.8106722517       -5.0547786980
 O        -6.4932382341       -6.7504881386       -5.1863971069
 C        -8.3588955615       -6.1797906784       -3.9043114210
 C        -7.2183009685       -5.5388137389       -2.9193829482
 C        -6.9158222493       -4.1118741430       -3.3193642753
 O        -7.4256239176       -3.6599439692       -4.3312295152
 C        -5.9048623186       -3.2122392431       -2.4386017077
 C        -6.6654054222       -1.9807590521       -1.6716927962
 O        -7.0275995011       -1.0467574866       -2.3190443956
 C        -6.8186068933       -2.1579140206       -0.1734925935
 C        -7.8172678711       -1.1495168584        0.3641362463
 C        -9.1827062210       -1.5507258523       -0.0987591711
 O        -9.3372080756       -2.5245759834       -0.7992209808
 C       -10.5798076350       -0.7984560242        0.3759607189
 C       -11.1053987770       -0.2711797593       -0.9700189520
 O       -10.8224343738        0.8399409034       -1.3397176148
 C       -11.9809330128       -1.1540412969       -1.8480864153
 C       -12.2617746913       -0.5636883122       -3.2255168819
 C       -10.8467153764       -0.4041595682       -3.8540974540
 O       -10.2185256043       -1.4229363606       -4.0298235691
 C       -10.1966121499        0.9832656168       -4.3435919460
 C       -10.1161497569        0.6747078676       -5.8622837125
 O        -9.0924369024        0.2132886254       -6.2878547514
 C       -11.2366910287        1.1659899135       -6.9813166198
 C       -10.6452525833        2.1832411290       -7.9763687143
 C       -10.4361383367        3.5829023418       -7.4677047820
 O        -9.6588432668        3.7090304961       -6.5083316207
 C       -10.9503221554        4.8568697248       -8.1258467060
 C       -10.6710328792        4.7916989848       -9.6745744336
 O       -11.3983367264        4.0876155530      -10.3865493449
 C        -9.4058522401        5.4774830464      -10.2080788961
 C       -12.5280720436        4.8716196739       -7.8656648519
 C       -10.3824794316        6.1157018735       -7.4077055123
 C       -11.0813463368        2.1909710408       -4.0683844979
 C        -8.8051095435        1.0672791090       -3.6888492546
 C       -11.4342519771       -1.8879253319        1.1130039303
 C       -10.1902235038        0.2923856731        1.4568319410
 C        -4.9105777614       -4.0435423377       -1.5062898385
 C        -4.9018663491       -2.6228319926       -3.4784157926
 C        -9.5553132146       -8.5508884991       -5.4276694396
 C        -7.5450127162       -8.5629290492       -6.9450517385
 C        -9.1738611785       -1.3511834812       -8.9218113419
 C        -9.8425022796       -3.1834950099      -10.3705459672
 C        -3.5378116110        0.3961344697       -6.8564033283
 C        -3.9798638860       -0.4085667149       -9.1608722533
 C        -0.2719300897       -5.9872918102       -8.0808481452
 C         1.7359834382       -4.6481388691       -7.6558844969
 C         2.2277592714       -2.6947799475      -15.2611484960
 C         2.9058784895       -5.0591086316      -15.2508002414
 C         7.7412413626       -3.1985624746      -17.5904049957
 C         8.8494153699       -0.9052796968      -17.2518413701
 C         4.6973967215       -1.0319426617      -23.4965027346
 C         4.9144960077        1.6839708911      -23.4726124180
 C         4.4244197173        4.5957837143      -18.3528293579
 C         2.1791327049        4.9280336134      -18.9959610954
 H         4.4898265060        6.8423167308      -19.9537347141
 H         3.6568360903        6.9598062655      -21.4507417707
 H         5.3102707464        6.3884143841      -21.5141509921
 H         1.1993545786        2.8964730670      -20.6920572731
 H         1.2797811083        1.3533885161      -19.9306543471
 H         3.1666889179        2.3585263530      -22.1437081747
 H         1.5841504027        1.4117737474      -22.4531968742
 H         7.7523260938       -0.1602305405      -22.3740631029
 H         6.9289996646       -1.5448123875      -21.9787406550
 H         7.9112856998        0.4085804496      -19.7030888204
 H         8.6863904431       -1.0710844842      -20.2885583120
 H         6.6925060328       -0.2159227300      -15.1616377701
 H         7.3034273241       -1.9060999195      -14.8415575243
 H         4.3889604117       -0.9974179480      -14.8659202526
 H         5.2289303934       -1.4341736670      -13.4786553347
 H         3.2797339421       -5.4797449984      -11.7240780179
 H         1.8124901090       -5.5012205496      -12.8032031431
 H         0.6588260161       -3.8523927523      -11.4293203305
 H         2.1475883535       -3.6232162969      -10.5768059782
 H         0.8216273574       -1.7672234584       -7.8060321460
 H        -0.1421106713       -2.8008112004       -6.8846471840
 H        -1.4586862598       -1.3965789715       -9.2100836760
 H        -1.1310757376       -0.3387330278       -7.7971928299
 H        -4.6249534540       -3.5535856650       -7.1519076591
 H        -4.9531036556       -2.7917591501       -8.7475809591
 H        -7.3437536016       -2.9723146277       -6.7606015619
 H        -6.8611058336       -4.4693792211       -7.3706395086
 H       -10.6288456419       -5.2292886312       -9.0642949508
 H       -11.8393477771       -4.4829872951       -7.9964514350
 H       -11.3679361960       -6.6940273170       -6.9014134720
 H       -10.6696303073       -5.4992036963       -5.8424552883
 H        -8.9164203418       -6.9212540449       -3.2939836867
 H        -9.0714261103       -5.3593369150       -4.0724901174
 H        -6.2656094101       -6.1089937507       -3.0524310226
 H        -7.3876725387       -5.5027374213       -1.8117901669
 H        -5.8287246979       -2.0376720230        0.2698028632
 H        -7.1282335342       -3.1043339981        0.0328758411
 H        -7.7301958026       -0.1452687823       -0.0558758761
 H        -7.6808572895       -1.0426180785        1.5204436022
 H       -12.9856914704       -1.2315303540       -1.4354663515
 H       -11.5560931290       -2.1602846400       -1.8621886249
 H       -12.7412139326        0.4903679973       -3.1623423067
 H       -12.9379701006       -1.1531384930       -3.8634217875
 H       -12.1467699783        1.6208025805       -6.4955762764
 H       -11.4854843070        0.3439719325       -7.6773923581
 H       -11.1780081054        2.1775628561       -9.0104829697
 H        -9.5832342509        1.8191533745       -8.1770932396
 H        -8.5029393833        5.0581307935       -9.7551341574
 H        -9.5593017290        6.5505517344      -10.1299935107
 H        -9.3133191964        5.1846208222      -11.2013439813
 H       -12.8293803627        4.6214462247       -6.8178902392
 H       -12.9757314772        4.1836751064       -8.5833985517
 H       -12.7405016066        5.8662298700       -8.0578500369
 H        -9.2905439780        5.9839628023       -7.4059252426
 H       -10.6429550552        6.2448182871       -6.3711399126
 H       -10.6979493681        7.0342730917       -7.9169910458
 H       -10.8237781431        3.1057481187       -4.6254763573
 H       -10.8973035536        2.5023935943       -3.0858564053
 H       -12.1453660794        1.9849010744       -4.1940667899
 H        -8.0964801953        1.6867569296       -4.2148814978
 H        -8.3800186256        0.0658021465       -3.6806212873
 H        -8.7845467536        1.2390062764       -2.5884945399
 H       -12.5583795549       -1.6356286533        1.1240745215
 H       -11.1042789668       -1.8565907673        2.1925748304
 H       -11.3383922152       -2.8728536054        0.6433368934
 H        -9.7947524683       -0.1930015565        2.4072259583
 H       -11.1214972914        0.7479014116        1.6581759161
 H        -9.4741341324        0.9821066439        1.0014966954
 H        -4.4990271197       -4.8098350430       -2.1232348082
 H        -5.3965072040       -4.4990759473       -0.6473458872
 H        -4.1542763253       -3.3609501583       -1.0901493840
 H        -4.6219750065       -3.4697771540       -4.2124258770
 H        -4.0375656953       -2.1273743691       -2.9977469796
 H        -5.3881963497       -1.8363164326       -4.0560751279
 H       -10.0963346027       -7.9929127559       -4.6718793157
 H        -9.1389839207       -9.3947531475       -4.8880225409
 H       -10.3139527917       -8.8890407777       -6.1387353558
 H        -7.0418611187       -8.0361810701       -7.7343075543
 H        -8.0089397981       -9.4356170654       -7.4402715528
 H        -6.8237620258       -8.9798708693       -6.2277867801
 H        -9.2439568851       -0.8452913750       -9.9093050234
 H        -8.3492485204       -0.9570215310       -8.3153472798
 H       -10.0965966873       -0.9320387371       -8.4605540253
 H       -10.8247721310       -2.6234370476      -10.4996022718
 H       -10.0259763459       -4.2482566340      -10.4676313740
 H        -9.1061075903       -2.8229540430      -11.0700272152
 H        -2.4663995242        0.5509973935       -6.7832123332
 H        -3.8476839292        0.1612732903       -5.8232629549
 H        -4.0431991720        1.2566038955       -7.2367972068
 H        -3.1298541841       -0.3428836374       -9.7742695942
 H        -4.4568862456        0.5660041030       -9.1788509655
 H        -4.6796327286       -1.0640296123       -9.7484318446
 H        -0.6264559422       -5.6635395925       -7.1339826510
 H         0.3125698835       -6.9732101033       -8.1970809831
 H        -1.1368011569       -5.9749032068       -8.7969191942
 H         1.2980521887       -4.5104630348       -6.6235766378
 H         2.5174012999       -3.9355345266       -7.9331274841
 H         2.2029217359       -5.6611612033       -7.5128218051
 H         2.1824231900       -2.9784394696      -16.3620093323
 H         2.4713092244       -1.6989248968      -15.1282233981
 H         1.1739275768       -2.7887395322      -14.8090220268
 H         3.4876171559       -5.8493253786      -14.7832997338
 H         3.1782238885       -4.9423893064      -16.2801731206
 H         1.8472790080       -5.2407922364      -15.1983111258
 H         8.6485132862       -3.3720744981      -18.0414214939
 H         6.9973109562       -3.7653287065      -18.1629015666
 H         7.8638257278       -3.4333273269      -16.5531871464
 H         9.6788036546       -1.4370992083      -17.7378433319
 H         9.1091000311       -0.9597184978      -16.1578838427
 H         8.7917519240        0.1345043174      -17.5945457691
 H         4.4502779155       -1.8583200854      -22.7861197636
 H         5.7081670873       -1.0947731789      -23.9788876386
 H         4.1571395843       -0.8325345540      -24.3743396024
 H         4.0576425192        1.7995426483      -24.2126554050
 H         5.9546464328        1.5958262297      -23.8369936744
 H         4.9845173930        2.5658231875      -22.8884457134
 H         4.0416514524        5.5063541587      -17.9700872455
 H         5.3392148407        4.9799542024      -18.7970557739
 H         4.6271579296        3.7943088743      -17.6302457711
 H         2.4099779269        6.0409488292      -18.9491782751
 H         1.8897626981        4.5005064324      -17.9609627868
 H         1.3617022627        4.7430912796      -19.7051051778
 Na       -7.9113231821       -1.5338421875       -5.1765663392
 Na        4.1335383799       -0.4418352139      -19.1807305082
