232

 C         4.1296946609        6.5504598228      -20.8648659538
 C         4.0444097893        5.0549255323      -20.5675794575
 O         4.6305100897        4.2858732775      -21.2977980108
 C         3.0729537778        4.5391909525      -19.4227870836
 C         3.0067848618        2.9260772157      -19.7344090029
 O         3.5483566190        2.0782206911      -19.0064227021
 C         2.0865810274        2.4054593395      -20.8860520705
 C         2.7586339976        1.6598620269      -22.0011971413
 C         3.5293514501        0.3999938845      -21.7549956008
 O         3.0984595718       -0.4374290430      -20.9056896888
 C         4.8348610392        0.1402301617      -22.5853765786
 C         5.9958573366        0.3954613358      -21.5607281083
 O         5.7830385131        1.1336292987      -20.6699563069
 C         7.4920643029       -0.1514556376      -21.7392557111
 C         8.0110118328       -0.5336767599      -20.4076520168
 C         6.9296479286       -1.1847478204      -19.5075824146
 O         5.8950091273       -1.6035787139      -20.0019343038
 C         7.3566365234       -1.5948969356      -18.0235130186
 C         6.3563031078       -1.0793166199      -17.0264577010
 O         5.3502310233       -0.4777779247      -17.3546090466
 C         6.5898880499       -1.3581380859      -15.4854628321
 C         5.3913161863       -1.7777720457      -14.6847051280
 C         5.0477020191       -3.2022106251      -14.9820471107
 O         5.7150385263       -4.0703361823      -15.5019931788
 C         3.4839214961       -3.7485068132      -14.7888349628
 C         2.9683069442       -3.3131146596      -13.3499373735
 O         3.2953508102       -2.2626655256      -12.8393374354
 C         2.2471074677       -4.3526905672      -12.4975005732
 C         1.8467774092       -3.9340780129      -11.0497488952
 C         1.3273762809       -5.0594427696      -10.1386359176
 O         1.6528801108       -6.1940984067      -10.1992048169
 C         0.4128493648       -4.6544877725       -8.8224814804
 C        -0.4974396361       -3.4927774315       -9.0656436885
 O        -1.4957037882       -3.6566102552       -9.7794646480
 C        -0.1690129458       -2.1342571100       -8.4734439792
 C        -1.4643038727       -1.2793740156       -8.4517277385
 C        -2.6487291372       -1.8922085092       -7.8056344956
 O        -2.4738065852       -2.8413257288       -7.0854435278
 C        -3.9863859943       -1.0635670797       -8.0775825483
 C        -5.1938596041       -1.8409308092       -7.2827036360
 O        -6.0002169252       -1.1866720491       -6.6184590657
 C        -5.3311407051       -3.2741826109       -7.5317007447
 C        -6.7817186553       -3.7425862849       -7.7818430819
 C        -7.5431154163       -3.0968470714       -8.9670185029
 O        -7.1061743517       -2.6407150993       -9.9896190141
 C        -9.1155724027       -2.9231134450       -8.9217938683
 C        -9.6902738961       -3.6214423711       -7.5710601976
 O        -9.4632873202       -3.1285385769       -6.4888992058
 C       -10.4329467265       -4.8900668060       -7.7309827318
 C       -10.3659456824       -5.9760402484       -6.6804144665
 C        -8.9468257606       -6.7506307396       -6.6378505338
 O        -8.1709591780       -6.5139717136       -7.5428541959
 C        -8.5661101325       -7.8518220521       -5.5899490387
 C        -7.8206242862       -7.0435086678       -4.4920864038
 O        -6.6251472864       -6.8866082926       -4.5635060644
 C        -8.5501629735       -6.3902734951       -3.3630415903
 C        -7.5029581759       -5.5862984777       -2.5384654899
 C        -7.1156446055       -4.3545471367       -3.3015313360
 O        -7.5724432562       -4.0256697027       -4.3405725344
 C        -5.9674336911       -3.4615838900       -2.6444722858
 C        -6.8865654768       -2.3411829972       -2.0563077513
 O        -7.5929253955       -1.6960428852       -2.7760053811
 C        -6.6970965980       -2.0767494776       -0.5559127139
 C        -7.8124039600       -1.2819511973        0.0912538439
 C        -9.1983116825       -1.8877047665        0.1775228429
 O        -9.5150312716       -2.9069406669       -0.3782589320
 C       -10.3086533873       -0.9071304907        0.8128744966
 C       -10.9461957646       -0.2784160929       -0.4013834551
 O       -10.8941154561        0.9304868754       -0.5327100997
 C       -11.7504208716       -1.1549008879       -1.3480372806
 C       -12.0877724178       -0.3775739177       -2.6429728028
 C       -10.8314618298       -0.1587881586       -3.4780873392
 O       -10.0504178783       -1.0790662790       -3.6782740820
 C       -10.4755544215        1.3636422651       -4.0452950642
 C       -10.1388468945        1.0479480242       -5.6023752947
 O        -9.0301294414        0.5981849658       -5.9589839523
 C       -11.1906862210        1.2585543167       -6.7006506800
 C       -10.6045291502        2.0234596565       -7.9117511177
 C       -10.2386845862        3.3955046673       -7.4001465021
 O        -9.4598647222        3.6037005240       -6.5081395585
 C       -10.9121667273        4.6678641072       -8.2083259597
 C       -10.4365479974        4.5307579609       -9.6333321814
 O       -11.1997020203        4.3880543597      -10.5901219551
 C        -8.9114413679        4.4623111900       -9.8156321220
 C       -12.4640199973        4.5959029317       -8.1583009588
 C       -10.3275978913        5.9076979286       -7.5611452529
 C       -11.5858670445        2.3820777144       -4.0656220215
 C        -9.1579952175        1.8352212259       -3.3796550619
 C       -11.3672060705       -1.8197670319        1.5024935626
 C        -9.8029747519        0.2575137306        1.7530402644
 C        -4.9886188581       -4.1382465437       -1.6561801261
 C        -5.0522795395       -2.8325836649       -3.7415287256
 C        -9.8827572816       -8.5579841972       -5.1970303721
 C        -7.5667931432       -8.7662858018       -6.2858475034
 C        -9.4070741604       -1.3629439785       -8.8900993262
 C        -9.6046917962       -3.4987360140      -10.2309540955
 C        -3.8003986330        0.3583209091       -7.4296550673
 C        -4.2111478089       -0.9685471051       -9.5917062376
 C        -0.3995297180       -5.9239499039       -8.5008860758
 C         1.5678455490       -4.4824477362       -7.7427592271
 C         2.6647343647       -2.8964394982      -15.8314869150
 C         3.4745165756       -5.2469447808      -15.0571610995
 C         7.5367362297       -3.1603962586      -18.1419287162
 C         8.7426745861       -1.0180952313      -17.7384583995
 C         4.7012408452       -1.3049667807      -23.2563654040
 C         5.0434597005        1.1801768502      -23.8465052606
 C         3.7960987287        4.8312116318      -18.0983742345
 C         1.6703126226        5.2125677751      -19.4374343342
 H         4.5292866762        7.1668266027      -20.0835201000
 H         3.1530429502        7.0520097113      -20.9627058492
 H         4.6260080362        6.7264354069      -21.8063083234
 H         1.4274984228        3.2441512689      -21.2318297291
 H         1.3236858129        1.8264737646      -20.3066109326
 H         3.5112831732        2.3137624526      -22.3617315354
 H         2.0437983855        1.4842794441      -22.8733614480
 H         8.0658634021        0.7004302254      -22.2038269727
 H         7.5032048207       -0.9082178633      -22.4984263471
 H         8.3879857488        0.2949935953      -19.8270139679
 H         8.8857253966       -1.2384539296      -20.4509984789
 H         7.2260355458       -0.6345328308      -15.0291441457
 H         7.2582071670       -2.1805810197      -15.5419581247
 H         4.5226280312       -1.1565794308      -14.9447126186
 H         5.5572865428       -1.7240555643      -13.5956959572
 H         2.9372560702       -5.2150773846      -12.4622609851
 H         1.3811005567       -4.8038644306      -13.0685595138
 H         0.9651586657       -3.2194434936      -11.1139505473
 H         2.5861120994       -3.2140760783      -10.6327382272
 H         0.4813304896       -1.4703283315       -9.1354729052
 H         0.4507356092       -2.1932330578       -7.5511296633
 H        -1.7170191534       -1.0506267912       -9.5133419442
 H        -1.3391836686       -0.3578685260       -7.9891207786
 H        -4.8953798742       -3.8519444631       -6.6901297675
 H        -4.6573610149       -3.5746618707       -8.3566306204
 H        -7.4606278510       -3.7100522218       -6.8592783540
 H        -6.8719705726       -4.8672448463       -7.9277768474
 H       -10.3493186563       -5.3282166174       -8.7318668914
 H       -11.5121059199       -4.5250063179       -7.6561611930
 H       -11.1217541628       -6.7966665380       -6.6359912481
 H       -10.4699302085       -5.5879142043       -5.6537372022
 H        -9.0119755337       -7.0390004114       -2.6469304953
 H        -9.3249650541       -5.7073686876       -3.6664926929
 H        -6.6645498078       -6.2643793345       -2.2878644964
 H        -7.8563396261       -5.2499254793       -1.5644169554
 H        -5.7620856029       -1.5765317357       -0.4988383425
 H        -6.5196976306       -3.0896748536       -0.1051262678
 H        -7.9262529024       -0.4052044366       -0.6290771229
 H        -7.5584388314       -0.7619670343        0.9794727398
 H       -12.6548379603       -1.2199962504       -0.7608798316
 H       -11.4005855054       -2.1523202849       -1.5729166606
 H       -12.4302515376        0.6656559140       -2.5087654530
 H       -12.8340419025       -0.9353271266       -3.2847435504
 H       -12.1784040443        1.5447980796       -6.2914201997
 H       -11.2880534994        0.2306137826       -7.1602470775
 H       -11.2953001880        2.1014328332       -8.7583295284
 H        -9.7972869950        1.4393061573       -8.4594553909
 H        -8.3602658176        4.2447840224       -8.9324915178
 H        -8.5554745441        5.3736848498      -10.2862247633
 H        -8.8439849579        3.7018921526      -10.5103262649
 H       -12.7433073118        4.2389926575       -7.1774147456
 H       -12.7835240288        3.8212547272       -8.8988964085
 H       -13.0258761933        5.5353265852       -8.5138276287
 H        -9.3936277015        6.2061213951       -7.9613178532
 H       -10.0705111209        5.7548569663       -6.5230658824
 H       -11.0349432017        6.7312915144       -7.7502570255
 H       -11.2577058929        3.2246338597       -4.6119901166
 H       -12.0053683737        2.6504013794       -3.1184679159
 H       -12.4118587377        1.9707730653       -4.6089361301
 H        -8.7185296085        2.7112358959       -3.9174206386
 H        -8.3428795260        1.1980266440       -3.3311716672
 H        -9.3813276535        2.3111655711       -2.4351513746
 H       -12.2033695134       -1.1783201844        1.4969900959
 H       -11.1288267599       -2.0839994497        2.5406393525
 H       -11.5378795166       -2.7775448117        0.9420721718
 H        -9.5446709356       -0.1933989020        2.7124818941
 H       -10.6142383229        0.9783732538        1.7780299520
 H        -8.8885994068        0.8094755745        1.3751506550
 H        -4.1643708558       -4.5840301508       -2.3299100738
 H        -5.3721513810       -4.8744065735       -0.9629543098
 H        -4.5105625792       -3.3164741736       -1.1811662691
 H        -4.0882872004       -3.2977020932       -3.7956854558
 H        -4.6766260740       -1.7837794677       -3.4670529253
 H        -5.5048225045       -2.8330232105       -4.7277558509
 H       -10.4458290380       -7.8920667423       -4.5367826820
 H        -9.6134697557       -9.5047688894       -4.7099761991
 H       -10.4368557608       -8.7897291416       -6.0508913366
 H        -6.6361397652       -8.2038161209       -6.4468881967
 H        -7.9213663314       -9.2933195136       -7.1903599468
 H        -7.2479632681       -9.5242141224       -5.5279272799
 H        -8.7113687736       -0.8100819449       -9.4987274127
 H        -9.3261885079       -0.8690895977       -7.9324837977
 H       -10.4476719425       -1.1195711471       -9.0934567212
 H       -10.6598378708       -3.2460717447      -10.3836917346
 H        -9.3478775116       -4.5956668686      -10.2525428768
 H        -9.0413240959       -3.1111774789      -11.0760503064
 H        -2.9874410395        0.9104327543       -7.9597595142
 H        -3.6993608375        0.2731842080       -6.3723361713
 H        -4.7731499184        0.8634865605       -7.5785094958
 H        -4.2149402112        0.0883495447       -9.9488731724
 H        -5.0827910461       -1.5112743735       -9.8931021547
 H        -3.4554054308       -1.4440999454      -10.2309098715
 H        -0.7614435234       -5.8276406514       -7.5646816845
 H         0.4551652343       -6.6299239026       -8.4881794789
 H        -1.0976260286       -6.1872782063       -9.3113997253
 H         1.1345687844       -4.1895228645       -6.8431033383
 H         2.3944618878       -3.7138855913       -7.9271604911
 H         2.0205412197       -5.3975117145       -7.6995179010
 H         2.3005644138       -1.9575746685      -15.5058969711
 H         1.7509287960       -3.3985128956      -16.1151323764
 H         3.2574716620       -2.9156107864      -16.6925559427
 H         4.0624495981       -5.7071302283      -14.2933600533
 H         3.9221917404       -5.5202067340      -16.0097864706
 H         2.4330955949       -5.5844386697      -15.0131901617
 H         8.0460706745       -3.3600468952      -19.0758180597
 H         6.4887176607       -3.6366506882      -18.1022229942
 H         7.9946815218       -3.6645678556      -17.3405609605
 H         9.5148581159       -1.3303913661      -18.4848187880
 H         9.0515880809       -1.3021958237      -16.7879051712
 H         8.6270060233        0.0889374303      -17.8942686850
 H         4.8853987877       -2.0834874418      -22.5106671397
 H         5.5038957712       -1.3672103260      -24.0822585983
 H         3.6697789543       -1.3620742718      -23.7028462705
 H         4.2384849573        1.1064624246      -24.5311877336
 H         5.7955213955        0.8829201748      -24.5006531443
 H         5.2715019637        2.1885791463      -23.4436474534
 H         4.1242271378        5.8583773617      -18.0562131805
 H         4.7162589771        4.2582003057      -18.2628535557
 H         3.2349675131        4.5117770067      -17.2336857550
 H         1.8198589957        6.2614753070      -19.2584201214
 H         0.8317567219        4.7725006697      -18.8001463983
 H         1.3065987852        5.2272981145      -20.4732769962
 Na       -7.9425062440       -1.4109512429       -5.1083614265
 Na        4.3342650754       -0.2052790101      -19.3152384253
