232

 C         4.0166824961        6.5670231787      -20.7997714237
 C         3.9476835183        5.0252777556      -20.5915272166
 O         4.7998393060        4.3561500108      -21.1243170767
 C         3.0245411313        4.4773727600      -19.5144163938
 C         2.8574206927        2.9091376004      -19.6899201871
 O         3.5387811647        2.1847134822      -19.0089424747
 C         2.0361461905        2.4829969281      -20.9700378974
 C         2.9036176191        1.8410103226      -22.1386546181
 C         3.5448151002        0.4918899241      -21.8915122887
 O         3.0899896873       -0.3394103054      -21.1130954116
 C         4.8182817009        0.1255341244      -22.6747799882
 C         5.9462053093        0.4483649928      -21.6828753658
 O         5.7232289516        1.1679192780      -20.7531746176
 C         7.4100295912       -0.1140876444      -21.7734092631
 C         8.0658564713       -0.4894033179      -20.5152303239
 C         7.1032141089       -1.2452601195      -19.5541354430
 O         5.9962536903       -1.5383889848      -20.0073985208
 C         7.4822414551       -1.6244924367      -18.1206386348
 C         6.3744676873       -1.1788327179      -17.0843984874
 O         5.3227613912       -0.6227507496      -17.2565454520
 C         6.6931752658       -1.4596726747      -15.5099068392
 C         5.3817951302       -1.7837956965      -14.8639408863
 C         5.0234746600       -3.2580425042      -15.0078280498
 O         5.7821741728       -4.0018644751      -15.5891862964
 C         3.5142285112       -3.7965176682      -14.7337739667
 C         3.0588400617       -3.2888837017      -13.2357422952
 O         3.1954872565       -2.1261025800      -12.9380641581
 C         2.1849920865       -4.3486412686      -12.4284049133
 C         1.7706582040       -3.7951382838      -11.0582678080
 C         1.3336737106       -4.9849683404      -10.1856999417
 O         1.6591126755       -6.1491752907      -10.3799248073
 C         0.5048128811       -4.6790133775       -8.8854977854
 C        -0.5667384032       -3.5057360377       -9.2136350059
 O        -1.5768045513       -3.7289644014       -9.7934768928
 C        -0.2669107641       -2.1935151297       -8.5090885784
 C        -1.3991554572       -1.1611883284       -8.6178914936
 C        -2.5875987624       -1.8503984276       -7.7574808157
 O        -2.5468405965       -2.7847604935       -7.0057907137
 C        -3.9836068054       -1.0961735962       -8.0590895422
 C        -5.2231745002       -1.8436249349       -7.4976189300
 O        -5.9285676505       -1.1126335507       -6.8215837843
 C        -5.3395975744       -3.3067730247       -7.5885257146
 C        -6.7639783914       -3.8236649344       -7.8441483778
 C        -7.4969157903       -3.0472834896       -8.8793632309
 O        -6.9362819427       -2.5786166212       -9.8526075897
 C        -9.1055612816       -2.9546246868       -8.9240915907
 C        -9.7230846541       -3.5969568018       -7.6353438563
 O        -9.4111587144       -3.0933065757       -6.5451490649
 C       -10.5156193034       -4.9743745630       -7.7428803661
 C       -10.3087170336       -5.8315213541       -6.5475355700
 C        -8.9751897650       -6.7528876770       -6.6404778269
 O        -8.2470685913       -6.6526816112       -7.5885601877
 C        -8.6298339953       -7.8549462710       -5.5123922663
 C        -7.8621455884       -7.1531072720       -4.3460950998
 O        -6.6990405084       -6.9827269258       -4.4896376490
 C        -8.6402408545       -6.5904834140       -3.1629556598
 C        -7.6698480858       -5.7090800003       -2.3811119047
 C        -6.9754947657       -4.4916217775       -3.2952008559
 O        -7.5443059721       -4.1572854727       -4.3472116946
 C        -5.9080597468       -3.4714661978       -2.7364598632
 C        -6.8905178031       -2.3146630039       -2.0572056364
 O        -7.5864740840       -1.5771948332       -2.7473032321
 C        -6.8674396205       -2.1185073005       -0.5609235240
 C        -7.8414270206       -1.1137928072       -0.1059851576
 C        -9.1618180475       -1.7824683801        0.2330716065
 O        -9.3599133542       -2.9373359767       -0.1650418540
 C       -10.3437308613       -0.9751869998        0.9032246010
 C       -11.0332341361       -0.1765092234       -0.2832802174
 O       -10.7683474486        0.9868726790       -0.5027561837
 C       -11.7740080787       -1.0833835739       -1.3501693211
 C       -12.0847361308       -0.1870661958       -2.6117074682
 C       -10.7756308541       -0.0794169532       -3.4499904085
 O       -10.0767277564       -0.9862066941       -3.6743117130
 C       -10.4996744904        1.3864412974       -4.0925732769
 C       -10.0999787870        1.0122890934       -5.5545511148
 O        -8.9526573114        0.5266641400       -5.7441903435
 C       -11.1400263693        1.0565412506       -6.6928878282
 C       -10.6429381831        1.9416716350       -7.8852458080
 C       -10.3622429497        3.4464964915       -7.4697591558
 O        -9.5327838795        3.5605142726       -6.5764237290
 C       -10.8389410637        4.7054996247       -8.1759700015
 C       -10.3344471654        4.5306947623       -9.7235407346
 O       -11.1618736845        4.4073943672      -10.6040790577
 C        -8.7587513229        4.3482301345       -9.9106670752
 C       -12.3959598170        4.6549852340       -8.1747854854
 C       -10.3655255841        6.0429677773       -7.5309783937
 C       -11.6692220285        2.2636065810       -3.8769983228
 C        -9.2447861652        1.9433144248       -3.3091382359
 C       -11.3124290484       -2.0170082830        1.6770266920
 C        -9.7210560012        0.1387416635        1.7920873002
 C        -5.0215701501       -4.1570990970       -1.6544189202
 C        -5.0486812973       -2.7700425017       -3.8269122241
 C        -9.8794679231       -8.6789264926       -5.0040324762
 C        -7.5319845682       -8.7083817738       -6.1969808695
 C        -9.4302852637       -1.4767277237       -8.8453359848
 C        -9.5814080426       -3.5009967617      -10.2813336775
 C        -3.9247761636        0.2709053656       -7.4169823584
 C        -4.2252718294       -1.0691894295       -9.6207452739
 C        -0.4137181032       -5.8720710487       -8.5038598374
 C         1.4468956586       -4.2911195959       -7.7355887318
 C         2.8187665550       -3.0161973134      -15.9004695736
 C         3.4170216754       -5.2332576751      -15.0165100903
 C         7.4507234472       -3.2068679736      -17.9880077024
 C         8.8981940413       -1.0718754685      -17.7062871940
 C         4.6601207205       -1.3493859965      -23.1556783793
 C         5.0357357539        1.0669505312      -23.8411453931
 C         3.7260397751        4.9052348895      -18.1804000814
 C         1.6693115603        5.2334789574      -19.5613003644
 H         4.4254289861        6.8707807909      -19.8701250261
 H         3.1946382631        7.1743187116      -20.8074876497
 H         4.6320323396        6.9082981336      -21.6148598552
 H         1.4764509342        3.3500473549      -21.2380838535
 H         1.2113184115        1.7262757596      -20.7313245679
 H         3.5488121285        2.4633877366      -22.6758445973
 H         2.1229023118        1.5185343609      -22.8930530891
 H         7.9870951982        0.6795108131      -22.2670103563
 H         7.3669955719       -0.8826936328      -22.4680388841
 H         8.3942831949        0.4535832198      -19.8738347495
 H         8.9734003941       -1.0036270101      -20.6871908992
 H         7.1668432555       -0.5196174972      -15.1612604978
 H         7.4760144195       -2.1388294957      -15.3084512398
 H         4.5813498897       -1.1814387857      -15.3602032400
 H         5.4339316833       -1.5512220914      -13.8034829252
 H         2.6794267883       -5.3042773941      -12.3394675946
 H         1.3636459436       -4.6225559685      -13.1005719440
 H         0.9773854172       -2.9918583632      -11.1617363811
 H         2.5864253730       -3.1261477933      -10.6493914324
 H         0.6768005682       -1.7000880632       -8.7246048092
 H        -0.1836652648       -2.4099067127       -7.4568692837
 H        -1.7112346258       -0.8291080866       -9.5984010755
 H        -1.1317714043       -0.2937982646       -8.0469278235
 H        -4.9742415112       -3.7593233947       -6.6382114906
 H        -4.6064319566       -3.7097899200       -8.2796255333
 H        -7.3419305966       -3.7739102333       -6.9700480788
 H        -6.8846559344       -4.8595797170       -8.0073419169
 H       -10.2359624785       -5.5371656570       -8.6026635681
 H       -11.6035840369       -4.8062268918       -7.8306273356
 H       -11.0045921606       -6.6389554839       -6.3551702187
 H       -10.3196201576       -5.3489324889       -5.5960709414
 H        -9.1201413062       -7.2347486534       -2.4442912337
 H        -9.4519318324       -5.9509447725       -3.5277546090
 H        -6.8663121902       -6.4261323538       -2.1187736381
 H        -8.0251507186       -5.3279717365       -1.4711652081
 H        -5.7538839984       -1.9529598866       -0.2038317869
 H        -7.1771343437       -3.0994707753       -0.1195634352
 H        -7.8949224582       -0.2071140553       -0.6615466250
 H        -7.5012345956       -0.7478731641        0.8477535110
 H       -12.6834086033       -1.5475341112       -0.9774498145
 H       -11.0930509868       -1.8865727784       -1.6904736684
 H       -12.6476155165        0.7444298289       -2.4687473583
 H       -12.6178268006       -0.7720403523       -3.2619569808
 H       -12.1039796626        1.2674098392       -6.2217585905
 H       -11.2348829116        0.0691171965       -7.1775115743
 H       -11.3020159486        1.8274960085       -8.7249771160
 H        -9.7775541081        1.5483368984       -8.3263184660
 H        -8.3191761617        4.1361838432       -8.9367096473
 H        -8.3403168155        5.2678598090      -10.2721452278
 H        -8.6393301383        3.6015690437      -10.6560577315
 H       -12.8693787392        4.3044633529       -7.1958975161
 H       -12.7491877534        4.0273623231       -9.0370015121
 H       -12.7482786400        5.5825685590       -8.4706831185
 H        -9.5602437030        6.4986143447       -8.1091009121
 H        -9.9417958466        5.8969727053       -6.5340653873
 H       -11.1776601157        6.8001905544       -7.5762277586
 H       -11.2839759463        3.2587721824       -4.0575001659
 H       -11.9291254781        2.2053378171       -2.8824275422
 H       -12.5854896078        2.1225019423       -4.4346630558
 H        -8.8632765324        2.9064143521       -3.5225688985
 H        -8.3696306099        1.3364863834       -3.4018713526
 H        -9.5653411349        2.0706349219       -2.2599466208
 H       -12.1845804609       -1.4317510764        1.9237597518
 H       -10.8516347523       -2.2875411901        2.6030489715
 H       -11.5025347103       -2.8591158055        1.1122284922
 H        -9.1183001074       -0.3002468165        2.6431151220
 H       -10.5329117378        0.7592198637        2.1035110704
 H        -9.0762580454        0.8071004677        1.1768890220
 H        -4.3908643934       -4.8713629100       -2.1818057331
 H        -5.6263041020       -4.6577045909       -0.8551053414
 H        -4.3393192900       -3.3567165358       -1.2470841922
 H        -4.0176767484       -3.1776076630       -3.8562928853
 H        -4.7953224511       -1.7320227934       -3.7016801382
 H        -5.4784275522       -2.9455964696       -4.7719476108
 H       -10.5212498993       -7.9913004966       -4.4874970147
 H        -9.4095344489       -9.3808386443       -4.3014235203
 H       -10.4196978322       -9.2167516205       -5.7564132840
 H        -6.7361929222       -8.1026663998       -6.6378070357
 H        -8.0272677352       -9.3974096581       -6.9283000952
 H        -6.9876366893       -9.3536434857       -5.4418503835
 H        -8.8161373118       -1.0746716178       -9.6270104757
 H        -9.0121638137       -0.9510353704       -8.0438598551
 H       -10.4188370046       -1.1227449613       -8.8344748141
 H       -10.6734887378       -3.2548568071      -10.4608945612
 H        -9.3213151849       -4.5604694472      -10.3686605711
 H        -9.0266476553       -3.0494111284      -11.0682196019
 H        -3.0086168443        0.8543752886       -7.6615004402
 H        -4.1356569364        0.0948818723       -6.3320502810
 H        -4.8397888865        0.7760498615       -7.7393578890
 H        -4.0535766038       -0.0967628197      -10.0432152041
 H        -5.1895115153       -1.4851843679       -9.9154056788
 H        -3.5243635354       -1.7649780383      -10.2087435189
 H        -0.7824496082       -5.7184104919       -7.5061522113
 H         0.1355946535       -6.7957587812       -8.5331203291
 H        -1.1038826125       -5.8163712106       -9.2899697589
 H         0.7819649369       -4.1119835868       -6.9415556524
 H         2.0702930718       -3.4882814522       -7.8088790964
 H         2.0339081077       -5.1788912169       -7.5364224874
 H         2.1353617090       -2.2553157700      -15.5759911211
 H         2.2009026705       -3.6552818680      -16.3750084275
 H         3.5902007182       -2.7013112630      -16.7138982497
 H         4.0763702243       -5.8087522960      -14.3643922236
 H         3.8701397109       -5.3360508210      -15.9973619573
 H         2.3895666785       -5.6017883729      -15.0169190577
 H         7.7693981264       -3.6670785711      -18.9443860677
 H         6.4971139308       -3.6246099979      -17.6053088053
 H         8.1527813453       -3.6105857932      -17.1746589430
 H         9.6180536495       -1.3486012852      -18.4721484194
 H         9.1547209686       -1.5172414874      -16.7145614964
 H         8.9007981601        0.0076388289      -17.7063396914
 H         4.7620095019       -2.0187611457      -22.2534231026
 H         5.4868776569       -1.5739677724      -23.8870829439
 H         3.6662064608       -1.4501382279      -23.5142158123
 H         4.1376598140        1.1459713524      -24.4720497412
 H         5.7062359523        0.7531983599      -24.6031578274
 H         5.3111851189        1.9604921867      -23.4077350952
 H         3.5900525811        5.9480121840      -18.0796066832
 H         4.7863056888        4.6753873762      -18.2784393051
 H         3.2342302749        4.3977862604      -17.3320856468
 H         1.8628955759        6.2902415370      -19.4353020575
 H         0.8426716282        4.9402529581      -18.8708115078
 H         1.3001919124        5.1622289904      -20.5261103340
 Na       -7.9895740030       -1.4961519394       -5.1730174503
 Na        4.3447372502       -0.0379843867      -19.2230927785
