232

 C         3.8236001105        6.8217998489      -20.8010875399
 C         3.8977837469        5.3675187538      -20.4860250552
 O         4.7992498632        4.6252491047      -20.8324930794
 C         2.6583561405        4.8308621514      -19.5885277291
 C         2.6903024185        3.2767453289      -20.0012464419
 O         2.9439354504        2.4594763157      -19.1548082210
 C         2.3474502568        2.9162229647      -21.5414648383
 C         3.4891828532        2.1882564837      -22.3912480753
 C         3.5638543794        0.7439341564      -22.0652518434
 O         2.8263352884        0.1664087117      -21.3347125806
 C         4.9412468956        0.0383299925      -22.7152382752
 C         6.0670799243        0.4084330976      -21.7664869404
 O         5.8803659860        1.2851001938      -20.8479245340
 C         7.5376296578       -0.1093178955      -21.9225204952
 C         8.0133183786       -0.3155327485      -20.4888810470
 C         7.0874924284       -1.2476030964      -19.6594403158
 O         5.9560222788       -1.4406156400      -20.0816979454
 C         7.5685970076       -1.8047069167      -18.2930172105
 C         6.5574532205       -1.5023706595      -17.1987225160
 O         5.5775034799       -0.7952493726      -17.4249752053
 C         6.8070076224       -1.7307275702      -15.6965902663
 C         5.4643628497       -1.8597701116      -14.9445956197
 C         5.1456581346       -3.3337105535      -15.0325808124
 O         6.0300074438       -4.1112185618      -15.2644341926
 C         3.7116418405       -3.7004874017      -14.8393447149
 C         3.0832123257       -3.1373602217      -13.4646340263
 O         3.1304808253       -1.9242644482      -13.2855217261
 C         2.4309137452       -4.1722287966      -12.5607256462
 C         1.6326880605       -3.5867075332      -11.3766326094
 C         1.2468699361       -4.8087434682      -10.5786131239
 O         1.4958505005       -5.8907605391      -11.0358234206
 C         0.5247380944       -4.5798932613       -9.0990678626
 C        -0.4362549624       -3.3646115825       -9.2063400040
 O        -1.3868522426       -3.5256000337       -9.9793821139
 C        -0.3868267381       -2.1614425722       -8.1894463526
 C        -1.5553617389       -1.1573396990       -8.6322163312
 C        -2.9003751925       -1.4549396186       -7.8719120948
 O        -2.8116681932       -1.9566835042       -6.7496071142
 C        -4.3743886212       -0.9669036015       -8.3657950704
 C        -5.4339582870       -1.8650579552       -7.5925067105
 O        -6.1342006902       -1.5285045963       -6.6488804663
 C        -5.2723820496       -3.4029011221       -7.9188057297
 C        -6.6047494725       -4.0932018803       -8.0873892333
 C        -7.4908194671       -3.2464377336       -8.9905945350
 O        -6.9836742892       -2.6641392912       -9.9120420617
 C        -9.0618913558       -3.1947123800       -8.6623313156
 C        -9.6540116366       -3.6752242648       -7.3289808010
 O        -9.7332109176       -3.0182587602       -6.2874015075
 C       -10.3962408137       -5.0923768210       -7.3194425917
 C       -10.0324204026       -5.9861181445       -6.0538265236
 C        -8.9881578452       -7.0591161414       -6.4625588577
 O        -8.4661539835       -7.0334885865       -7.5693362850
 C        -8.6824297869       -8.0745463383       -5.2354022938
 C        -7.9252414747       -7.2195866716       -4.1026040700
 O        -6.6865553905       -7.2579786523       -4.0767812857
 C        -8.6397170661       -6.4483841899       -2.9146468158
 C        -7.7205024964       -5.4425513638       -2.3090628637
 C        -7.3922073758       -4.3165815575       -3.1980903756
 O        -7.9824086339       -3.9703193717       -4.2033029978
 C        -6.1171023809       -3.5283729090       -2.7888565514
 C        -6.6618684687       -2.2128028137       -2.3478713048
 O        -7.0982399483       -1.4127759067       -3.1044455090
 C        -6.7670364189       -1.8377045644       -0.8296942628
 C        -7.9803193268       -1.0904380799       -0.3176338620
 C        -8.9721303637       -1.8931011474        0.5224854231
 O        -8.8364010454       -3.0485054207        0.7366732084
 C       -10.2112465590       -1.0628340748        1.1261397932
 C       -10.9086169840       -0.2170038628       -0.0159361506
 O       -10.5497957244        0.9445438158       -0.1670518615
 C       -11.6383611341       -0.9097016904       -1.1139636568
 C       -11.8943188055        0.0656796792       -2.2768757082
 C       -10.7841027444       -0.0674978739       -3.2799746136
 O       -10.2051089954       -1.1451364759       -3.4387534754
 C       -10.3777856063        1.2525649628       -4.0392622028
 C        -9.9888528169        0.9722402070       -5.4777634973
 O        -8.8957551486        0.4401705092       -5.6782387518
 C       -11.0721792845        0.9929997215       -6.7321049272
 C       -10.6732330262        1.9526494815       -7.8217290974
 C       -10.3832268359        3.3533978363       -7.2790539479
 O        -9.9703100394        3.4867054149       -6.1595532586
 C       -10.6945276744        4.5302999582       -8.3085227515
 C       -10.0383475016        4.2368451600       -9.7840327583
 O       -10.7308033792        4.2580368214      -10.7613415076
 C        -8.4899260220        4.1940775749       -9.8755365209
 C       -12.1878218416        4.8179741811       -8.3350859295
 C       -10.0580215858        5.8233523224       -7.6654531081
 C       -11.6345358989        2.2573401146       -3.8574453990
 C        -9.2139208488        1.8457125776       -3.2192725133
 C       -11.3134969249       -2.0098996808        1.7578844638
 C        -9.5675197554       -0.2404890371        2.3259074487
 C        -5.2298794419       -4.1940193515       -1.7326060515
 C        -5.2724187807       -3.3361367023       -4.0971479249
 C       -10.0096075829       -8.7463239391       -4.6536011030
 C        -7.8528121520       -9.3023146100       -5.6707779480
 C        -9.5343905435       -1.7635515222       -8.8428020234
 C        -9.5994793572       -3.9854731987       -9.8435488108
 C        -4.5089143550        0.4989195022       -7.6579170578
 C        -4.5606380610       -0.9885513003       -9.8848075356
 C        -0.4330490391       -5.8255789175       -8.7936284441
 C         1.6460513105       -4.3695676197       -8.0341213084
 C         2.7933684520       -3.1564148923      -16.0953616103
 C         3.4493885186       -5.2996002567      -14.8004644599
 C         7.7628955762       -3.4238130981      -18.3306322562
 C         8.8996972727       -1.1476927399      -17.8191874851
 C         4.8028225577       -1.4736327401      -22.8382826796
 C         5.3262798890        0.6264768973      -24.0636642417
 C         2.9893672092        5.1287233085      -18.0830319820
 C         1.4086513516        5.5453903368      -19.9739287304
 H         3.1909771507        7.3682456391      -20.1447372811
 H         3.3896987044        7.0015481354      -21.7717154124
 H         4.6967339988        7.3726102889      -20.8070172788
 H         2.0529221962        3.9025492686      -21.9679740420
 H         1.4831847968        2.3244345189      -21.2858648773
 H         4.5015054821        2.5097028038      -21.9145718456
 H         3.6558990728        2.5188004519      -23.3549643154
 H         8.1328310255        0.5919386931      -22.3977995698
 H         7.4411182996       -1.0755153434      -22.5294539818
 H         8.1777059302        0.5546184052      -19.8958702255
 H         9.0579283907       -0.7507318449      -20.6517698843
 H         7.3592172465       -0.8470919300      -15.3940243901
 H         7.6224644775       -2.4908811096      -15.6505601024
 H         4.7967312480       -1.2748803394      -15.5729869051
 H         5.5383389796       -1.4514390493      -13.9250990765
 H         3.1044453215       -4.9682368743      -12.1721935627
 H         1.7862037139       -4.7208163076      -13.2142938166
 H         0.7637899884       -2.8911996651      -11.5884050689
 H         2.3523976202       -2.9628880223      -10.7385812946
 H         0.5567580782       -1.6971605887       -8.1988711354
 H        -0.6210963459       -2.6420996665       -7.2456751849
 H        -1.6766574059       -1.2798974888       -9.6626111157
 H        -1.4303165199       -0.0732922468       -8.4103057451
 H        -4.8196847675       -3.8486543942       -7.0334598364
 H        -4.6171405604       -3.7056827986       -8.7406708481
 H        -7.0817588763       -4.3622743919       -7.1997967340
 H        -6.5404236402       -4.9695641564       -8.6371245797
 H        -9.9830316282       -5.6587579340       -8.1753016671
 H       -11.4558866066       -5.0782702181       -7.4322660232
 H       -10.8920803496       -6.4375068551       -5.6010801752
 H        -9.5619571453       -5.3973081236       -5.2466495622
 H        -8.9951992934       -7.0655494458       -2.0794655340
 H        -9.5251088504       -5.9060126424       -3.2349607288
 H        -6.8362718509       -5.9467824890       -2.0741949528
 H        -8.1832056139       -5.0656677661       -1.3795042078
 H        -5.9239072476       -1.0864070902       -0.6800908495
 H        -6.5487302067       -2.7488552750       -0.1736956554
 H        -8.4922474727       -0.7631930829       -1.1706958080
 H        -7.6688771891       -0.1162476136        0.1068625127
 H       -12.5172295401       -1.2658307094       -0.5356847497
 H       -11.0758417590       -1.8149824320       -1.4044131785
 H       -11.9044278448        1.0382130827       -1.9701604700
 H       -12.7788075033       -0.1060884055       -2.8350661678
 H       -12.1108840487        1.0135881070       -6.4313534936
 H       -10.9866900174       -0.0148858023       -7.1038981592
 H       -11.3266490634        1.9998806514       -8.6673275421
 H        -9.7130023765        1.6712717196       -8.1465157255
 H        -7.9906518186        3.9574053241       -8.9951347557
 H        -8.2782804594        5.2163737140      -10.0263930929
 H        -8.2665436617        3.7341215264      -10.8388080941
 H       -12.5540182567        5.2517902336       -7.4131451341
 H       -12.8677480531        4.0542187059       -8.6332700377
 H       -12.3015669398        5.6946390156       -9.1210414076
 H        -8.9804538663        5.5974069258       -7.4907470933
 H       -10.6638636449        5.8832693215       -6.7733747368
 H       -10.1577374946        6.7561852287       -8.1274559416
 H       -11.3071946305        3.1747492002       -4.2277634112
 H       -11.9337402846        2.4942412196       -2.8489166691
 H       -12.4080265437        1.8412159188       -4.4146964467
 H        -8.6816351981        2.6431436715       -3.7292797250
 H        -8.3942147022        1.1414521947       -2.9336644616
 H        -9.5358377710        2.3072091412       -2.3078971133
 H       -12.2351047228       -1.5100882887        1.8439271416
 H       -10.9613257062       -2.2265731099        2.6963850102
 H       -11.3626591427       -2.8695832311        1.1256540144
 H        -8.6761879024       -0.6464433262        2.7850706158
 H       -10.2463076245       -0.2886531866        3.2524813015
 H        -9.5231497193        0.8013722842        2.0549128151
 H        -4.7625255750       -5.1613102957       -1.9835444316
 H        -5.7757438236       -4.2689458026       -0.7604508673
 H        -4.4435604289       -3.4323803170       -1.5004677245
 H        -5.5015884364       -3.9716248587       -4.9335550234
 H        -4.2398972588       -3.4633738215       -3.8375281582
 H        -5.2574902329       -2.3027749559       -4.5321315654
 H       -10.5345963983       -8.1292800952       -3.9494549234
 H        -9.6375823442       -9.5861590624       -4.1614035161
 H       -10.6757993196       -9.0458285765       -5.4905050201
 H        -6.7751314506       -8.9467197001       -5.7852819575
 H        -8.2197143379       -9.5729034894       -6.6859134897
 H        -7.8881135312      -10.1655844260       -4.9902960313
 H        -8.9527318434       -1.1934799312       -9.5491187190
 H        -9.4481388507       -1.1553480018       -7.9422025883
 H       -10.5351175958       -1.6998109572       -9.2279339737
 H       -10.6633657123       -3.9075925820       -9.7186574943
 H        -9.4883968016       -5.0503254644       -9.8974521706
 H        -9.3359580025       -3.4909676757      -10.8288330552
 H        -3.9715135263        1.2278602311       -8.2676473572
 H        -4.0409997329        0.4627011762       -6.6506049095
 H        -5.5843975925        0.7926165674       -7.7064466670
 H        -3.7804279494       -0.2512467484      -10.2289239242
 H        -5.4965448621       -0.4924984686      -10.2822959981
 H        -4.3485081186       -1.9494833003      -10.3130240429
 H        -0.7360797051       -5.6006665140       -7.7621918745
 H         0.1398297887       -6.6950436807       -8.7143577373
 H        -1.2933228658       -5.7461845747       -9.4170500684
 H         1.3606412252       -4.3190699575       -7.0466944323
 H         2.0820181714       -3.4015382966       -8.3404171268
 H         2.3683372310       -5.0844604138       -8.1024741979
 H         3.2302954034       -2.3292850785      -16.6473717511
 H         1.8235593677       -2.8634968832      -15.5104315715
 H         2.5423696992       -3.7766395647      -16.8720470715
 H         4.0631096448       -5.7624894953      -14.0175745412
 H         3.8214741706       -5.7040732877      -15.7384068380
 H         2.4442217741       -5.6557857779      -14.6494043583
 H         8.8249644841       -3.8374483179      -18.4852704793
 H         7.1290305636       -3.9612893572      -19.0751014047
 H         7.4134301054       -3.8240151856      -17.3609379571
 H         9.7274496791       -1.2354630687      -18.5068095004
 H         9.0797735227       -1.6121416732      -16.8400956922
 H         8.7193314632       -0.1586258692      -17.4341610463
 H         4.9576056009       -2.0004435972      -21.8928306503
 H         5.4988530743       -1.8536360949      -23.5577166419
 H         3.6810743237       -1.7001282867      -23.0640872864
 H         4.6752035094        0.4436335575      -24.8492221828
 H         6.3089344776        0.2440286198      -24.2830552591
 H         5.3829211557        1.7106965536      -24.1060209504
 H         3.4454935724        6.1212700546      -17.9918984885
 H         3.4762166725        4.2554095268      -17.7604458026
 H         2.1567820398        5.2132763449      -17.4602270253
 H         1.3045772957        6.4994824639      -19.4971972256
 H         0.5199204776        5.1444952350      -19.6912831028
 H         1.4077822878        5.6162760125      -21.0550838967
 Na       -8.1097502223       -1.6269778335       -5.0902716197
 Na        4.4112629980        0.1572291988      -19.4818296454
