232

 C         3.9908312499        7.0530261947      -20.7880998613
 C         3.8109073495        5.5772420420      -20.4849808205
 O         4.7838666225        4.8791220416      -20.6987455578
 C         2.5704384216        4.8718546146      -19.7108582421
 C         2.6485625429        3.4179621835      -20.1815654890
 O         3.0169063889        2.5178080955      -19.4526901817
 C         2.4186111561        3.0451531098      -21.7875400710
 C         3.6150987438        2.2983594484      -22.3430129916
 C         3.7683440183        0.7971276064      -22.0600708732
 O         3.0212165841        0.1624443660      -21.2676000157
 C         5.0271310708        0.1507370153      -22.6383812766
 C         6.1788718381        0.4702195540      -21.7035334694
 O         5.9760248790        1.2447813909      -20.8567840265
 C         7.5424426930       -0.1799327224      -21.9503669330
 C         8.2264579137       -0.5807195902      -20.6255509876
 C         7.2578115888       -1.2795988967      -19.7462863539
 O         6.1427331270       -1.6031461314      -20.1326939975
 C         7.6301759211       -1.6879657763      -18.3060582297
 C         6.3847539023       -1.1831654126      -17.3280430189
 O         5.3688441380       -0.6277065521      -17.6837139465
 C         6.7591986947       -1.5423392529      -15.8049475115
 C         5.6384607720       -1.9457150756      -14.9074787616
 C         5.2083379947       -3.4401960891      -14.9690847036
 O         6.0086888817       -4.3671979234      -15.1572252272
 C         3.6525250059       -3.7633515638      -15.0019193065
 C         3.0906433303       -3.1366478500      -13.6284610863
 O         3.2208726830       -1.9511900303      -13.4298925099
 C         2.4846127744       -4.1523551922      -12.5785116625
 C         1.7082100162       -3.6159940515      -11.3497050467
 C         1.0618980981       -4.7128128359      -10.4754810100
 O         1.1671653553       -5.8816334785      -10.8786944824
 C         0.4166681464       -4.4485232863       -9.1160675213
 C        -0.6909890366       -3.3015065234       -9.3680750551
 O        -1.4012960522       -3.3198849663      -10.3347178074
 C        -0.7117473613       -2.1984335604       -8.2321998005
 C        -1.6775040635       -1.1295650050       -8.5477963697
 C        -2.9574953585       -1.3828686698       -7.6076109447
 O        -2.8848079584       -1.9109568150       -6.5055589492
 C        -4.3863209313       -0.8644536940       -8.1123198816
 C        -5.3420933667       -1.9531288016       -7.5683092319
 O        -6.1483544374       -1.5715206498       -6.7397583368
 C        -5.2838323821       -3.4102070732       -7.9511100752
 C        -6.7399660074       -3.9889463261       -7.9408636607
 C        -7.6915002210       -3.3155207820       -8.9095501313
 O        -7.2531134396       -2.8287880045       -9.9250375421
 C        -9.2595306180       -3.3207803517       -8.7618542071
 C        -9.7166172649       -3.8485864044       -7.3797272439
 O        -9.3801714633       -3.1249567157       -6.4614965175
 C       -10.3554349004       -5.2417896923       -7.2204003036
 C        -9.9779516256       -5.9755601327       -5.9114109542
 C        -9.0518465834       -7.1947228632       -6.1624456455
 O        -8.3168969941       -7.2892709590       -7.1312671537
 C        -8.8081637782       -8.3082182678       -5.0457521918
 C        -8.0700730644       -7.3792745592       -4.0170347765
 O        -6.8793439051       -7.2957926543       -4.1600850949
 C        -8.8517971960       -6.5277896203       -2.9422837681
 C        -7.7866233315       -5.5574708782       -2.1891308204
 C        -7.4990056220       -4.2479734200       -2.9806077050
 O        -8.2452473514       -3.8071186998       -3.8358529493
 C        -6.0372197378       -3.4238423038       -2.7743543675
 C        -6.5571340814       -2.0287761338       -2.2256632264
 O        -6.9301248782       -1.1024581419       -2.9782832658
 C        -6.7530239456       -1.8632091675       -0.7561146044
 C        -8.1105728462       -1.0772889574       -0.5100356675
 C        -8.8474700126       -1.8431649597        0.5449662399
 O        -8.5363736817       -3.0135389166        0.8345738978
 C       -10.0532204569       -1.1531782168        1.2104769670
 C       -10.6545854514       -0.2321940541        0.1538896950
 O       -10.3482355417        0.9262581032        0.0859822304
 C       -11.6357783152       -0.8988779326       -0.9149233118
 C       -11.9102213665       -0.1874272425       -2.1610121206
 C       -10.7687317166       -0.0997617962       -3.3429416134
 O       -10.0679382414       -1.0563059455       -3.4787327548
 C       -10.4431205633        1.2344734445       -4.1132049126
 C       -10.0424540631        0.8544554770       -5.5981303727
 O        -8.9260242238        0.5073784675       -5.9414740552
 C       -11.1548451614        1.0052675391       -6.6771434510
 C       -10.5102199812        1.8992146475       -7.8363516356
 C       -10.2838274840        3.3551282940       -7.4160462392
 O       -10.0757809553        3.5265385942       -6.2282950518
 C       -10.5233764893        4.6377316084       -8.2619262864
 C        -9.9103288260        4.2201309703       -9.6245203840
 O       -10.6791804626        3.9146632453      -10.4994121952
 C        -8.3970561446        4.0581742312       -9.6868117006
 C       -12.0933370508        4.7257285852       -8.4839251798
 C        -9.8306389615        5.8267167380       -7.6031197264
 C       -11.4898994395        2.2701207175       -3.9755918230
 C        -9.1236210824        1.6975665207       -3.5063498551
 C       -11.0036184771       -2.2993945502        1.6492888909
 C        -9.4883118125       -0.3155232729        2.3311343313
 C        -5.1522682683       -4.1013628885       -1.7506608161
 C        -5.2797075219       -3.1985161790       -4.0539738629
 C       -10.2227422090       -8.8590268845       -4.6589211079
 C        -7.7697830203       -9.2754982545       -5.6426169786
 C        -9.6521543429       -1.8045529780       -8.8584214503
 C        -9.9048929239       -4.0935659866       -9.9231841760
 C        -4.6684808962        0.5878501422       -7.7271204706
 C        -4.5278643770       -1.0351334345       -9.6774373973
 C        -0.2686195058       -5.8389467064       -8.6768932194
 C         1.6053172044       -4.0888144329       -8.1994695662
 C         2.8977364956       -3.0683555841      -16.2457465644
 C         3.5932208803       -5.2971754173      -15.1436232678
 C         7.5940693544       -3.2135153682      -18.3819888837
 C         9.0297615285       -1.1773224136      -17.8471815992
 C         4.7247311414       -1.3660284100      -22.8038354751
 C         5.3273637764        0.7213501642      -24.1139722237
 C         2.7608231261        4.9575317494      -18.1483383675
 C         1.1266461614        5.4480844595      -20.1685365904
 H         3.7028506799        7.7128406448      -19.9478064047
 H         3.4806165418        7.4836974910      -21.6281782479
 H         5.0486167327        7.4027566539      -20.8544462501
 H         2.2707364975        3.9244877377      -22.3495098964
 H         1.5619788423        2.3570732600      -21.7704783133
 H         4.5526356046        2.7543523809      -22.1583045203
 H         3.5555815517        2.4893349505      -23.5080142262
 H         8.0258910259        0.7049726006      -22.5078634302
 H         7.3485731480       -0.9485348997      -22.6194478361
 H         8.7371607625        0.2565023811      -20.0638426516
 H         8.9780833603       -1.2577541600      -20.8412948890
 H         7.3263260190       -0.6426644381      -15.3966061596
 H         7.5599417932       -2.2670037364      -15.9067157525
 H         4.7689900964       -1.2666219449      -15.0498753899
 H         6.0601897369       -1.8667011001      -13.9081103428
 H         3.3041282475       -4.7294925020      -12.1773799153
 H         1.8271921517       -4.9220334694      -13.0688447258
 H         0.8244433396       -3.1203308696      -11.6802551771
 H         2.2929769849       -2.9321526852      -10.7992618433
 H         0.2952189211       -1.7377460139       -8.2003293706
 H        -1.0058940847       -2.7009619105       -7.3227978643
 H        -1.9088149320       -1.2833239142       -9.6695443011
 H        -1.2907145467       -0.1139691841       -8.4373884020
 H        -4.6994470306       -4.0008685505       -7.2307444197
 H        -4.8275705504       -3.5700351074       -8.9223541921
 H        -7.1780701196       -3.7206310108       -6.9112380880
 H        -6.8111259119       -5.1387023937       -8.1207348436
 H       -10.0470338455       -5.8165938134       -8.0634915478
 H       -11.4734712050       -5.1704476030       -7.2816176127
 H       -10.9514382248       -6.2758776191       -5.4269594982
 H        -9.4477444856       -5.2039159725       -5.3150762782
 H        -9.2801196480       -7.2046616269       -2.1825423760
 H        -9.7488955034       -5.9795452189       -3.3382525298
 H        -6.8689502397       -6.2215326773       -2.0254164328
 H        -8.2503299143       -5.2854483506       -1.2508290609
 H        -5.9187669834       -1.2947364644       -0.4111344737
 H        -6.8053921116       -2.8053036078       -0.3212973554
 H        -8.6273343561       -0.9005916120       -1.5156137944
 H        -7.9654654006       -0.0819085697       -0.1227625234
 H       -12.5394439686       -1.1382199801       -0.3540087894
 H       -11.1782724747       -1.8578825373       -1.1879322132
 H       -12.2386581843        0.9105704574       -2.0165511887
 H       -12.8152457214       -0.7165786013       -2.6062010398
 H       -12.0387866184        1.3887603058       -6.1596374909
 H       -11.4123956967        0.0031347277       -7.0748742683
 H       -11.1460961338        1.9055177149       -8.7598269767
 H        -9.4767934578        1.4331640314       -7.9440735768
 H        -8.1940077171        3.5706496581       -8.6896592430
 H        -7.8133245659        5.0147325677       -9.6088528164
 H        -8.1597658370        3.4809600521      -10.5995634282
 H       -12.6097969774        4.7022428654       -7.4935122747
 H       -12.4708213662        3.8472174569       -9.0441483900
 H       -12.4553685186        5.5684941608       -8.9175511161
 H        -9.0471334918        5.5206539802       -6.9398029549
 H       -10.5350155938        6.6064166448       -7.3157294203
 H        -9.3498845218        6.3537446383       -8.4808716827
 H       -11.3488686550        3.0394125337       -4.7953280889
 H       -11.1817211436        2.7677678807       -3.0674923403
 H       -12.5209990952        1.8019580445       -3.9723554810
 H        -8.9209839932        2.6545831101       -3.9698569602
 H        -8.2928202432        1.0270850829       -3.7044191073
 H        -8.9723331197        1.8407939803       -2.3965870996
 H       -11.9212833867       -1.7150411438        1.9366711426
 H       -10.4662610667       -2.7993802264        2.4927787587
 H       -11.2212640004       -2.9507903745        0.8312943862
 H        -9.2305262000       -0.9609890641        3.1702735573
 H       -10.1683695545        0.3300061076        2.7742631560
 H        -8.6713376743        0.3264610436        2.0002547752
 H        -4.7952728897       -4.9864094736       -2.2149852914
 H        -5.6217454572       -4.4015088761       -0.8274093583
 H        -4.2824540172       -3.4941415434       -1.5066160718
 H        -5.7830104525       -3.6220242224       -4.9415544452
 H        -4.2438436712       -3.4677725621       -4.0123511287
 H        -5.1591617875       -2.1746761585       -4.2355759497
 H       -10.8902992284       -7.9932539991       -4.5158766324
 H       -10.2028317680       -9.4000637139       -3.6600902008
 H       -10.5230710231       -9.5313407267       -5.4469553233
 H        -6.9450241658       -8.7207742490       -6.0254132699
 H        -8.1411155544       -9.9666341643       -6.3896827713
 H        -7.4665357369       -9.8456841841       -4.7537532793
 H        -9.6411385059       -1.3371855296       -9.8388702237
 H        -9.0860590803       -1.1912062766       -8.2114815998
 H       -10.7085901415       -1.6771097229       -8.7003801775
 H       -10.9165300102       -4.5027314339       -9.8204801116
 H        -9.3212877711       -4.9977045983      -10.0366125915
 H        -9.8022604362       -3.5915593091      -10.8186553392
 H        -3.7604530548        1.1595831493       -7.9816016431
 H        -4.8351423425        0.6694884709       -6.6569943285
 H        -5.4497553751        0.9670150601       -8.3582825011
 H        -4.5820710852       -0.1703154799      -10.2661296005
 H        -5.4921832504       -1.4500657356       -9.8514188391
 H        -3.7547248283       -1.7799595262       -9.9891951779
 H        -0.6938426867       -5.8398638919       -7.6182351292
 H         0.5682821986       -6.5585068082       -8.7675328470
 H        -1.0785179759       -5.9293237799       -9.4005706301
 H         1.1283484043       -3.9354183444       -7.1653629584
 H         2.2743683211       -3.3097217525       -8.4457371182
 H         2.2067668544       -5.0798079358       -7.9826124203
 H         3.6177079408       -2.4343834230      -16.7870326325
 H         1.9643689374       -2.6529087468      -16.0290334332
 H         2.7352966160       -3.7949431328      -17.1339315680
 H         3.8347272230       -5.7676645372      -14.1845607939
 H         4.1575149597       -5.7461105745      -15.9647582297
 H         2.5242185770       -5.5690447202      -15.2954736264
 H         8.2526861470       -3.6458560739      -19.1223582881
 H         6.6485120455       -3.5383710532      -18.6866819330
 H         7.8804198273       -3.7238230126      -17.4356130245
 H         9.7501980407       -1.3193162843      -18.6426897720
 H         9.4241731752       -1.6064194786      -16.9068447358
 H         8.8838220125       -0.1370782165      -17.6141380318
 H         4.5465560587       -1.8639991824      -21.8164981001
 H         5.6685122539       -1.8109670028      -23.2851601201
 H         3.8908011977       -1.5454263707      -23.4506114668
 H         4.3139291378        0.8130047948      -24.6168559041
 H         6.0703061760        0.0488646330      -24.5834177466
 H         5.7382215411        1.6974150769      -24.3139020595
 H         2.9205295951        5.9989589805      -17.9835423295
 H         3.5638367978        4.2753942066      -17.8201838446
 H         1.8759413637        4.6586868734      -17.5064948443
 H         1.0347295686        6.5713496927      -20.0670050033
 H         0.2524535539        5.0373435732      -19.5716089206
 H         0.8350188365        5.3376727078      -21.2232764215
 Na       -8.1923264767       -1.5094755015       -5.1708833307
 Na        4.1475380392        0.2113226082      -19.3832264326
