232

 C         3.8037948802        7.0768943060      -20.6214500925
 C         3.8603423817        5.6356040632      -20.3648362170
 O         4.7727160614        4.8746032180      -20.6986967557
 C         2.5963778137        4.9076162985      -19.8512225631
 C         2.7366103189        3.4074613942      -20.3172433690
 O         3.0819549042        2.6035875832      -19.5017044130
 C         2.3879971447        2.9890568965      -21.7994340777
 C         3.5722332159        2.3415071962      -22.5068927531
 C         3.8252847323        0.8884574703      -22.0977419339
 O         3.0509706669        0.2838548208      -21.3847219487
 C         5.0022771690        0.1876482496      -22.7519908915
 C         6.2613419960        0.4950107712      -21.7233271900
 O         6.0816935318        1.1017642780      -20.6953513642
 C         7.7281527159       -0.1761868147      -22.0547990769
 C         8.3283261697       -0.6589713226      -20.7211674329
 C         7.2476135438       -1.2376246313      -19.7689003233
 O         6.1551613343       -1.5652999483      -20.2494191872
 C         7.5806267502       -1.5910828967      -18.3066178579
 C         6.4974693894       -1.2208367191      -17.3076360535
 O         5.4558317102       -0.6855500494      -17.6498115849
 C         6.7251145518       -1.4479342970      -15.7993276112
 C         5.6654479950       -1.9586874322      -14.8462373903
 C         5.2404391019       -3.4453019355      -15.0980644571
 O         6.1063597184       -4.2774755437      -15.0931142810
 C         3.6936599053       -3.8309425218      -15.0627218864
 C         3.1241609508       -3.2624845216      -13.6592084284
 O         3.1155732481       -2.0391420980      -13.4457304213
 C         2.4866386901       -4.1972605571      -12.5874858739
 C         1.7143417512       -3.5685216385      -11.4555521309
 C         1.0824912697       -4.7744893718      -10.6188733223
 O         1.0989165073       -5.9173012300      -10.9974857819
 C         0.4061407178       -4.4817798039       -9.1440595020
 C        -0.6121804466       -3.3546689585       -9.3611499750
 O        -1.2933485586       -3.2423073041      -10.3557145052
 C        -0.7034343435       -2.1918540551       -8.3039930371
 C        -1.7565499051       -1.0784921013       -8.3513533390
 C        -2.9756375572       -1.3129032815       -7.5845144634
 O        -2.8959665183       -1.8302359868       -6.4679423207
 C        -4.4524398669       -0.9243422826       -8.1019825039
 C        -5.5309176145       -1.8641424137       -7.4971018803
 O        -6.2967057566       -1.4659063009       -6.6509948799
 C        -5.4898355325       -3.2929063260       -7.9832985880
 C        -6.8956309244       -3.9468017661       -7.8244550469
 C        -7.7590286980       -3.3803428469       -8.9801209519
 O        -7.2718840487       -2.8881915913       -9.9565176738
 C        -9.3555220804       -3.3581829633       -8.8245811525
 C        -9.6350761201       -3.9149771907       -7.4139167304
 O        -9.2608212656       -3.3401118814       -6.3757086781
 C       -10.3177536043       -5.2957231148       -7.2597894267
 C        -9.8931008909       -6.0091593296       -5.8584236286
 C        -9.0471106222       -7.2108207110       -6.1587598852
 O        -8.3381077419       -7.1823223927       -7.1629456345
 C        -8.8754018733       -8.2544385237       -4.9818438799
 C        -8.0563718760       -7.3526330794       -3.9190553860
 O        -6.8272813985       -7.2819281988       -4.0891865398
 C        -8.6966258507       -6.4582932981       -2.7896349378
 C        -7.7569138767       -5.4208744225       -2.1579153900
 C        -7.5098273491       -4.2217880772       -2.9585078213
 O        -8.3832504835       -3.7555311042       -3.7076460540
 C        -6.1551470164       -3.4568801072       -2.8090106228
 C        -6.5282275441       -2.0198890380       -2.2800009512
 O        -6.7650174618       -1.1636163994       -3.1098559104
 C        -6.5780216026       -1.7806316580       -0.7554068861
 C        -7.9774255325       -1.0569527592       -0.4326144156
 C        -8.7920763890       -1.9338584973        0.5937428837
 O        -8.4123516772       -3.0316924256        0.8693251588
 C       -10.0929958422       -1.2384894277        1.2315916005
 C       -10.6699487036       -0.2413750303        0.1560573496
 O       -10.2625357380        0.9113624321        0.1916815401
 C       -11.5600957493       -0.8620165756       -1.0106849916
 C       -11.8742651679       -0.1444720400       -2.3559880084
 C       -10.6200436585       -0.1581175355       -3.3081976270
 O       -10.0156085587       -1.1552434611       -3.4511276489
 C       -10.4153870320        1.2101800180       -4.0944563371
 C       -10.1672194897        0.8725286902       -5.6662286705
 O        -9.0249087975        0.5295446343       -6.0966355136
 C       -11.2496677463        1.0741693811       -6.7718742126
 C       -10.5564238178        1.9446732428       -7.8676492980
 C       -10.3684121748        3.3488260295       -7.1889304899
 O        -9.8735398868        3.5439094960       -6.1192758923
 C       -10.5055201634        4.5235809153       -8.2732483333
 C        -9.8618803709        4.0311847315       -9.6532719888
 O       -10.4712831807        3.7195396445      -10.6338369865
 C        -8.3161918257        4.0212342823       -9.6848667100
 C       -12.0090864313        4.8367597687       -8.3971415113
 C        -9.9112345681        5.8301344914       -7.6648306762
 C       -11.5540982224        2.2350673922       -3.8733172754
 C        -9.0621260279        1.7422437508       -3.5240387784
 C       -11.0177482035       -2.3819527687        1.8326392587
 C        -9.5409448483       -0.3095006437        2.4147863029
 C        -5.1703387258       -4.1231300290       -1.7633804262
 C        -5.4048998157       -3.1760910702       -4.1117249305
 C       -10.2289330248       -8.9317603173       -4.5469390627
 C        -7.9672326517       -9.3739393543       -5.5237357887
 C        -9.7377713730       -1.8739371581       -8.8995189299
 C       -10.0116263816       -4.1273536381       -9.9972850889
 C        -4.7564950866        0.5104581477       -7.6034325261
 C        -4.5080629084       -1.1582741900       -9.7495802329
 C        -0.3222731241       -5.7459330077       -8.6135181293
 C         1.4748367685       -3.8758590127       -8.2234664252
 C         2.9501412706       -3.0653242461      -16.2367300964
 C         3.4702675737       -5.2941885413      -15.2798258615
 C         7.5203690914       -3.1872709979      -18.2774866147
 C         9.0103265909       -1.1575661523      -17.9219581102
 C         4.6012842694       -1.3050231532      -22.8031579715
 C         5.3341031051        0.7736457972      -24.1764488861
 C         2.6370987527        4.9032108115      -18.3553874148
 C         1.2179931461        5.4180963850      -20.2169080828
 H         3.5478580737        7.7182074628      -19.7218263992
 H         2.9998653521        7.3243694691      -21.3660443365
 H         4.6938220130        7.6302715418      -20.9178336912
 H         2.1289158862        3.9031027882      -22.3043531473
 H         1.5468545312        2.2739505674      -21.6676533495
 H         4.5307505206        2.8282677607      -22.2693815040
 H         3.5797172274        2.5316397495      -23.5785531401
 H         8.2777026268        0.5302526913      -22.6278320540
 H         7.3152313265       -0.9960346620      -22.7231619541
 H         8.8643421189        0.2218198684      -20.2334173069
 H         9.0924835443       -1.4070045587      -20.9056935746
 H         6.9801992272       -0.4110894842      -15.5603875395
 H         7.6431547486       -1.9388209770      -15.6866391041
 H         4.7519641304       -1.3386500063      -14.7693889887
 H         6.2143837887       -2.0270349827      -13.9120574502
 H         3.3112824597       -4.7626647203      -12.1105437179
 H         1.8140783540       -4.9620032166      -13.0020930683
 H         0.9565968507       -2.8852758916      -11.7806108522
 H         2.3729330099       -3.0744722491      -10.7281164096
 H         0.2307880061       -1.5730523153       -8.4789807261
 H        -0.7700344031       -2.6716961111       -7.2671495379
 H        -2.0512581816       -0.8929979737       -9.3717455884
 H        -1.1938076175       -0.1754003697       -8.0445255189
 H        -4.7338941154       -3.8834774296       -7.4171907676
 H        -5.2544586851       -3.4100881591       -9.0528563115
 H        -7.3308246662       -3.7642321726       -6.7824564336
 H        -6.8576881564       -5.0825456891       -8.0583551717
 H        -9.9300226515       -5.9435826024       -8.0757396244
 H       -11.4169304894       -5.1197141601       -7.4589440524
 H       -10.7968072366       -6.2779945847       -5.2297158714
 H        -9.2197865165       -5.2199499792       -5.3989390447
 H        -9.1802383202       -7.0536062826       -2.0088333963
 H        -9.5153194232       -5.8651007191       -3.2414147981
 H        -6.8546175684       -5.9391424181       -1.7540465549
 H        -8.4172010417       -5.0190266959       -1.3473538222
 H        -5.7554297361       -1.0392435473       -0.5821532134
 H        -6.4720297285       -2.6758855261       -0.2417634592
 H        -8.5355584296       -1.0254273445       -1.4041702372
 H        -7.8659323568        0.0388052737       -0.1582692074
 H       -12.5159441776       -0.9745612321       -0.5260633811
 H       -11.1588743041       -1.8725851152       -1.1159723906
 H       -12.2688726650        0.8880776177       -2.1268687546
 H       -12.7430518749       -0.7166490019       -2.7807201430
 H       -12.1857563403        1.4660936331       -6.3038446840
 H       -11.4301958397        0.0373869140       -7.1597584695
 H       -11.2510208933        2.0895578669       -8.7857987853
 H        -9.5337359575        1.4933094882       -8.0225764885
 H        -7.9367808249        3.5364423261       -8.7765108284
 H        -7.9481795811        5.0200455087       -9.5835773374
 H        -8.0036599732        3.5691392010      -10.7023307623
 H       -12.3692202922        4.9549579456       -7.3743139847
 H       -12.6685871138        4.1476814647       -8.8751589754
 H       -12.2661337500        5.8786273219       -8.7967513885
 H        -9.2100532871        5.5342091804       -6.8457381612
 H       -10.6408979573        6.5949659375       -7.4715962951
 H        -9.3299312387        6.3163317686       -8.4212676525
 H       -11.3743200771        3.0664258959       -4.5893149531
 H       -11.3150567025        2.6294025655       -2.8624092632
 H       -12.5647243098        1.7738741107       -4.0151436542
 H        -8.8652024311        2.7368809050       -3.8324313746
 H        -8.1511028359        1.0819387616       -3.6035067253
 H        -9.0788320718        1.7597340312       -2.4244188125
 H       -11.6714450664       -1.7414960302        2.5072192398
 H       -10.2907731933       -3.0204080083        2.3551509378
 H       -11.6694848353       -2.9235629846        1.0891029070
 H        -9.6161549901       -0.8566452053        3.3595289911
 H       -10.2019939029        0.5515103132        2.6295453256
 H        -8.5753293511        0.0997180226        2.3185964918
 H        -4.7409332147       -4.9299355401       -2.2386412400
 H        -5.5815690264       -4.5582145667       -0.8682932679
 H        -4.3411823498       -3.4672500530       -1.4938350239
 H        -5.9272207949       -3.6281778527       -4.9973032769
 H        -4.4349390585       -3.5706161820       -4.0287327403
 H        -5.0958903376       -2.1349946125       -4.3386436703
 H       -11.0737867768       -8.2545742542       -4.4448713268
 H       -10.0985037684       -9.4088668194       -3.5841778979
 H       -10.3303383295       -9.7543560816       -5.3166394851
 H        -7.2027407553       -8.9719798056       -6.1619644601
 H        -8.5200476081      -10.0672974232       -6.1081919159
 H        -7.6259904193       -9.9210633501       -4.6894417980
 H        -9.7222140106       -1.4182018864       -9.9032960990
 H        -9.0174378518       -1.3263002344       -8.2646642837
 H       -10.7498803473       -1.5673079270       -8.6880503469
 H       -11.0898352813       -4.2942474648      -10.0750139414
 H        -9.5916920410       -5.1007205205      -10.0353955387
 H        -9.6375463052       -3.6811211901      -10.9395974953
 H        -3.9719660933        1.2086915348       -7.5458964164
 H        -5.1258719130        0.3275580712       -6.5836432664
 H        -5.5329551188        0.8621594964       -8.2266757175
 H        -4.2506816461       -0.2977064162      -10.3013185926
 H        -5.5596417276       -1.3076500317      -10.0356071178
 H        -3.9056002830       -1.9941031456       -9.9924853412
 H        -0.8901067840       -5.6037288528       -7.6030038838
 H         0.4900604674       -6.4231106253       -8.5324568898
 H        -1.0271763253       -6.0088692199       -9.3889645426
 H         1.0727166115       -3.5881515855       -7.1998942743
 H         2.0066123509       -2.9942869922       -8.6772340186
 H         2.2690595017       -4.6196659649       -8.0060211513
 H         3.5456504245       -2.3251941875      -16.6636102560
 H         1.8761078191       -2.7852883429      -15.9987525596
 H         2.8396138729       -3.7028254382      -17.0427147335
 H         3.7809414843       -5.9987862867      -14.4928760564
 H         3.7446018332       -5.6540178111      -16.2694001459
 H         2.3856319837       -5.3259983728      -15.2940862249
 H         7.9402092098       -3.5809942151      -19.1978365862
 H         6.5591163187       -3.5487721930      -18.3619975300
 H         8.0737076907       -3.6795285970      -17.5166316663
 H         9.7005363505       -1.7117560714      -18.5456186625
 H         9.1731487936       -1.5901074609      -16.8666867582
 H         9.2337296787       -0.1033314766      -17.8770844775
 H         4.2304937910       -1.5025548986      -21.7350198856
 H         5.4880039809       -1.8999017774      -22.8922047744
 H         3.8948995916       -1.7197074009      -23.6284544869
 H         4.3586740532        0.8800249016      -24.6803361972
 H         6.1761894730        0.2571694889      -24.7224005282
 H         5.6996891969        1.8104389278      -24.2195615698
 H         2.3841315828        5.9466496978      -17.9946994370
 H         3.6513618652        4.5696605744      -18.0674091662
 H         1.9682378107        4.1681981872      -17.8631968824
 H         1.1040297205        6.5776953784      -20.1911407445
 H         0.4685393042        4.9985503104      -19.5690912926
 H         0.8161918855        5.2592905187      -21.2792975786
 Na       -8.1325079431       -1.6661735481       -5.0537366529
 Na        4.0703651178        0.3675207766      -19.3083936005
