232

 C         3.6460884009        7.1040667224      -20.4567642083
 C         3.7994177767        5.5896190290      -20.5280437757
 O         4.8492594438        5.0439217272      -20.7159436396
 C         2.5029928080        4.8174405766      -19.9084450354
 C         2.7076814494        3.3032502927      -20.3564094453
 O         3.2176794166        2.5244682911      -19.5433175833
 C         2.3600336541        2.9939293636      -21.7397551267
 C         3.5152133602        2.5211666355      -22.5928350521
 C         3.8090786540        1.0480700285      -22.2057582531
 O         3.0448206367        0.4892798367      -21.4730440184
 C         5.0548658694        0.2193962147      -22.7664219795
 C         6.2276025077        0.3424634634      -21.7993196845
 O         6.1997735298        0.9509076300      -20.6735951581
 C         7.6805037426       -0.1654443660      -22.0810116182
 C         8.2834771025       -0.6388005603      -20.8126176155
 C         7.2316917194       -1.3093680008      -19.8285571707
 O         6.1276850592       -1.4665446165      -20.3005068305
 C         7.5968280968       -1.7135347078      -18.3679261512
 C         6.4928916258       -1.1043572631      -17.2371857930
 O         5.4021335260       -0.7240641430      -17.6078512413
 C         6.8609230638       -1.3148842900      -15.6859753037
 C         5.6220416101       -1.8705903003      -14.8946935372
 C         5.2766624495       -3.4560497430      -15.0699945116
 O         6.1283889627       -4.2686148120      -15.1326210453
 C         3.6180666466       -3.8439430502      -15.0687568349
 C         3.0518783518       -3.3136900864      -13.7093815905
 O         3.0221844241       -2.1221228864      -13.4755772942
 C         2.5764269162       -4.3745621832      -12.7271824333
 C         1.7534076049       -3.7263365492      -11.5349985949
 C         1.1030400073       -4.7828446761      -10.6585676011
 O         1.0292875720       -5.8671150855      -11.1049750143
 C         0.4388309629       -4.3686248396       -9.2592693599
 C        -0.6769494371       -3.1917708792       -9.4002198019
 O        -1.3267056378       -3.1633799665      -10.4365138615
 C        -0.6341591108       -2.0797337247       -8.2710918862
 C        -1.7960267236       -1.0152696347       -8.3784115570
 C        -3.0903654792       -1.4133034612       -7.5475975992
 O        -2.9912078719       -1.7570015509       -6.4141936069
 C        -4.5597352183       -1.0156028621       -8.0587296574
 C        -5.6422723426       -1.8794845471       -7.4109863284
 O        -6.4183326332       -1.3563190367       -6.6082687877
 C        -5.6043620300       -3.3148767127       -7.9447353572
 C        -6.9827669470       -3.9910454988       -7.8707085631
 C        -7.8108744309       -3.4467761051       -9.0331769722
 O        -7.3336657005       -2.9601024698      -10.0413426623
 C        -9.3570042015       -3.3987001089       -8.7931582061
 C        -9.6777154243       -3.9836256544       -7.4072111713
 O        -9.2904265212       -3.4460462714       -6.3758514082
 C       -10.3471019688       -5.3595851657       -7.2953619290
 C        -9.9712444519       -5.9614905817       -5.9018545199
 C        -8.9972953583       -7.1192952551       -6.1312485615
 O        -8.3772234962       -7.2361825705       -7.1419741140
 C        -8.8530973331       -8.1908912982       -4.9488623143
 C        -7.9887898944       -7.3248521618       -3.8843581246
 O        -6.7907110797       -7.2739942298       -3.9550465147
 C        -8.7223078156       -6.5380481452       -2.7466480466
 C        -7.8018166677       -5.4634859570       -2.1054906282
 C        -7.5064362858       -4.1837956494       -2.9566309350
 O        -8.3733739619       -3.7043156157       -3.6415590504
 C        -6.0820807867       -3.4409239806       -2.8546780487
 C        -6.4773079666       -1.9419009731       -2.2897893004
 O        -6.7375397678       -1.1436597151       -3.1252095382
 C        -6.5422081107       -1.5651817646       -0.8125574026
 C        -7.8772534951       -1.0474541364       -0.3104816791
 C        -8.6987253864       -1.9507967064        0.6458537909
 O        -8.4173391940       -3.0810978575        0.9467320335
 C       -10.0008651715       -1.2739118897        1.2930401945
 C       -10.5862802050       -0.3326129663        0.1026222780
 O       -10.3598740887        0.8587555488        0.0917182370
 C       -11.5020570279       -1.0202807370       -0.9381004083
 C       -11.7275392524       -0.1008028671       -2.2786082039
 C       -10.6247229285       -0.1681178677       -3.3305351121
 O        -9.9038735021       -1.1836401432       -3.4787554979
 C       -10.3525842845        1.1687527205       -4.1211429260
 C       -10.2010572782        0.9097710039       -5.6328303175
 O        -9.1513708989        0.3645357144       -6.0090834892
 C       -11.2740336574        1.1494430233       -6.6978278465
 C       -10.7685026024        2.0511821423       -7.7993505901
 C       -10.2392364928        3.3808360740       -7.2549772940
 O        -9.7964438390        3.4672869186       -6.1227690397
 C       -10.4626750555        4.5499999602       -8.2449945898
 C        -9.7886336522        4.0351224906       -9.6506551071
 O       -10.3793017492        3.5423466635      -10.6290531378
 C        -8.2057277840        4.0141931909       -9.6491004608
 C       -12.0433690262        4.8269057657       -8.4130990201
 C        -9.7966810508        5.8543068869       -7.7579339809
 C       -11.5008756346        2.1945992494       -3.9200378494
 C        -9.0132520551        1.7464968316       -3.5811723226
 C       -10.9813794080       -2.3083085357        1.8678416994
 C        -9.5955956629       -0.4049830233        2.4562587606
 C        -5.1818577271       -4.1463536997       -1.8044657923
 C        -5.4925408324       -3.3635018969       -4.2906604822
 C       -10.1511736551       -8.7439833534       -4.3546661406
 C        -8.0192836504       -9.4760061516       -5.3608696643
 C        -9.8657642849       -1.9253266727       -8.8747691028
 C       -10.0525771439       -4.1509723512       -9.9662055942
 C        -4.7661843912        0.4885142957       -7.6638373488
 C        -4.4628151605       -1.0625181662       -9.6082317905
 C        -0.2645797029       -5.5171123432       -8.6163108346
 C         1.5441702677       -3.9243738306       -8.1932335128
 C         3.0364164928       -2.9438600664      -16.1387955730
 C         3.4024767858       -5.3423351873      -15.2801615835
 C         7.5121055137       -3.2544607515      -18.1916998712
 C         9.0039022394       -1.1608393879      -17.9404249900
 C         4.7292502037       -1.3246785923      -22.8684996666
 C         5.4416323196        0.6934506803      -24.1531638080
 C         2.5829531235        4.9010301756      -18.3058460452
 C         1.2262571478        5.4994238422      -20.3942838620
 H         3.5345871086        7.5852851917      -19.4959902382
 H         2.8539846276        7.5634714868      -21.1039078686
 H         4.5518050463        7.6089650435      -20.7485061738
 H         1.9644865914        3.9944813730      -22.0805055743
 H         1.6236333577        2.1963543671      -21.6930018978
 H         4.4896216939        3.0931924521      -22.6268451092
 H         3.2911681682        2.5912391067      -23.5893586714
 H         8.1503537864        0.7031249502      -22.4310004166
 H         7.5214217701       -0.9050890565      -22.9219354330
 H         8.7665351727        0.2179791991      -20.3985071234
 H         9.1725697093       -1.3460655095      -21.1231921824
 H         7.2315670760       -0.3941795675      -15.3882788430
 H         7.7082073016       -1.9990131868      -15.7024560240
 H         4.6963140262       -1.4677510442      -15.2346165449
 H         5.7877566514       -1.6802026732      -13.8187949369
 H         3.4415672140       -5.0227549650      -12.4355581117
 H         1.8418356751       -4.9997799210      -13.2012639598
 H         0.9441979206       -3.1336451038      -12.0423453293
 H         2.3135722448       -3.0644471928      -10.8087534318
 H         0.3323979608       -1.5368393385       -8.2891576090
 H        -0.8904290158       -2.6309188518       -7.3098705968
 H        -1.9881641768       -0.6619322748       -9.3409701800
 H        -1.3561010767       -0.1475617291       -7.8664888328
 H        -4.9567324799       -3.9220178142       -7.2956188461
 H        -5.2400726476       -3.4039185032       -8.9860287118
 H        -7.4152222165       -3.7427531493       -6.9327736209
 H        -6.8910460731       -5.0478337493       -7.9794005189
 H       -10.0400756587       -6.1118264052       -8.0958355439
 H       -11.4062579526       -5.1210136813       -7.4317633450
 H       -10.9048972187       -6.3613171491       -5.5307956560
 H        -9.5596220690       -5.0820530530       -5.3033863626
 H        -9.0154031827       -7.3194084206       -2.0197582394
 H        -9.6361352169       -6.1213423446       -3.1116497289
 H        -6.9079634582       -6.0203713166       -2.1054172986
 H        -8.1721880758       -5.2076819993       -1.0761699215
 H        -5.8566449502       -0.7011494273       -0.7301478561
 H        -6.2159682937       -2.4818784800       -0.1548941494
 H        -8.5303546399       -0.7858954621       -1.1227846461
 H        -7.6613047265       -0.0619444134        0.1930967723
 H       -12.4983020938       -1.0807531933       -0.4898712026
 H       -11.1177551028       -2.0356387294       -1.0154357786
 H       -12.0123773685        0.8773102360       -2.0123769518
 H       -12.6173417177       -0.5468424764       -2.7303083240
 H       -12.2429480533        1.4616141333       -6.2714461891
 H       -11.3730675606        0.1589207543       -7.1689583096
 H       -11.6567665193        2.2505916422       -8.3823406954
 H        -9.9490866187        1.5209284617       -8.3107686137
 H        -7.7759872377        3.5399672823       -8.7779203379
 H        -7.8994653711        5.0545540165       -9.5742010530
 H        -7.8931977562        3.6268211824      -10.5775763634
 H       -12.6389400992        5.2088717690       -7.5895801138
 H       -12.6231657527        3.9994112986       -8.8564628334
 H       -12.1041679217        5.6991725545       -9.1634557565
 H        -9.1214171954        5.4985156078       -6.9709525619
 H       -10.5018301991        6.5903281135       -7.4075727030
 H        -9.2501988446        6.3815598046       -8.5031371630
 H       -11.2161766740        3.0854353244       -4.4313978908
 H       -11.6411041441        2.3963495420       -2.8419759288
 H       -12.3552385931        1.7716186600       -4.4017434747
 H        -8.8594509535        2.7834717526       -3.9288435260
 H        -8.1029552056        1.2025181598       -3.5121874388
 H        -9.1767692464        1.8352804849       -2.5442026063
 H       -11.4932063991       -1.8631195467        2.6758703520
 H       -10.3531366717       -3.1812663821        2.0508851810
 H       -11.7322960308       -2.5312249185        1.0426389071
 H        -9.6953354819       -0.8700360539        3.4328736163
 H       -10.2717267151        0.4953825954        2.5401397252
 H        -8.5726021164        0.0087477453        2.4697953652
 H        -4.8717779044       -5.1764648603       -2.1970486595
 H        -5.6871457752       -4.4180905420       -0.8989695479
 H        -4.2800641393       -3.6238752687       -1.5963035746
 H        -6.2310534167       -3.8297554280       -4.9033559392
 H        -4.5707916779       -4.0078342818       -4.3535848054
 H        -5.0557046984       -2.4205997783       -4.7168773068
 H       -10.8764458314       -7.9992134714       -4.0328005531
 H        -9.8666803938       -9.2503035078       -3.4625862560
 H       -10.4953569918       -9.5148292257       -5.0477975516
 H        -7.1653949162       -9.2125663115       -5.9754330895
 H        -8.6137068070      -10.0644565351       -6.0331659824
 H        -7.8916060562      -10.0855131477       -4.4997933613
 H        -9.6169419917       -1.4774726587       -9.8304424545
 H        -9.3010075270       -1.3334301327       -8.1067721256
 H       -10.9198427461       -1.6388388695       -8.9030380654
 H       -11.0938069093       -3.8723749708      -10.0336896497
 H       -10.0483289284       -5.2585500364       -9.9705403849
 H        -9.5959278704       -3.8519506260      -10.9598152182
 H        -3.9517742772        1.1646530346       -7.7260508117
 H        -4.9969759489        0.3766726560       -6.6355434263
 H        -5.6392431351        0.8521663684       -8.2052071023
 H        -3.8040779095       -0.1861996997       -9.8172527975
 H        -5.3978786272       -0.7319260550      -10.0579045918
 H        -4.0789777383       -1.9511264921      -10.0010219802
 H        -0.7494787818       -5.1033293080       -7.8103947480
 H         0.5709380470       -6.1730745324       -8.3154297591
 H        -1.0171254471       -6.0255077595       -9.2645524371
 H         1.2552629798       -3.9001581299       -7.1850551694
 H         2.0090042304       -2.9172551334       -8.5070852785
 H         2.3591765029       -4.5484571383       -8.2959936227
 H         3.3992398429       -1.9365653421      -16.2690395200
 H         1.9622289104       -3.0330351625      -15.9828690210
 H         3.1191721004       -3.4116411701      -17.0663626562
 H         3.9812448790       -5.9722595688      -14.6262794266
 H         3.6921378340       -5.5142741417      -16.3105538079
 H         2.3730989389       -5.6771793702      -15.2376654885
 H         7.9220410367       -3.8026117579      -19.0256233304
 H         6.4528021887       -3.6663260664      -18.2502944753
 H         8.0599837092       -3.6228828967      -17.3944671740
 H         9.8378732058       -1.7568995729      -18.3916386269
 H         9.1382375266       -1.3163535232      -16.8951242324
 H         9.1449838408       -0.0668505512      -18.1688339661
 H         4.1668434196       -1.5044539806      -21.9517883716
 H         5.5670103252       -2.0625729196      -22.9502521683
 H         4.1096031653       -1.4831924214      -23.8369693956
 H         4.5980722897        0.6975992006      -24.7902123642
 H         6.3662985518        0.3426841966      -24.5610493765
 H         5.6943658338        1.7948374175      -24.0809882290
 H         2.0624097060        5.7976707580      -17.8476258261
 H         3.6586507240        4.8317972237      -17.9899315974
 H         2.1555813290        4.0088943985      -17.9005390485
 H         1.2176726483        6.5396642311      -20.2080048633
 H         0.3053062010        5.0379504465      -20.0166405853
 H         1.0608869909        5.5636744813      -21.4820915228
 Na       -8.0966490076       -1.7809553015       -4.9371702701
 Na        4.1122385427        0.5310367019      -19.2822624505
