232

 C         3.4611859041        7.2722109539      -19.5598337238
 C         3.3714590428        6.0287570842      -20.4432682432
 O         3.9625894052        5.8548397961      -21.5064298065
 C         2.4823401183        4.8809858234      -19.9509205928
 C         3.0290774020        3.5747227222      -20.5358835113
 O         3.7588612804        2.8705764676      -19.8665812585
 C         2.5967931823        2.9415228872      -21.9158570480
 C         3.7821357855        2.5864718972      -22.7603409107
 C         4.1342469935        1.0784799102      -22.6202399008
 O         3.5444007524        0.4121637239      -21.7959236463
 C         5.3116318092        0.4645057358      -23.2935020455
 C         6.4484088353        0.4021218235      -22.1920537083
 O         6.5751449925        1.3623138902      -21.3848225299
 C         7.5226189341       -0.7748300535      -22.0696702739
 C         8.1470267687       -0.8842049044      -20.7022977561
 C         7.1029029726       -1.2710099171      -19.7308550510
 O         5.9362280680       -1.4110040564      -20.0366885936
 C         7.4079854747       -1.5320227947      -18.2006020320
 C         6.4120485411       -0.8312092592      -17.1487630822
 O         5.5076871047       -0.1359462750      -17.5730013539
 C         6.5510441315       -1.1569252029      -15.6495748286
 C         5.2382821780       -1.7435715913      -15.0389548605
 C         4.9406249623       -3.2773942416      -15.3010294983
 O         5.9076557435       -4.0685565864      -15.3237114052
 C         3.4432197240       -3.7563193941      -15.3199624301
 C         2.7626174595       -3.1216181678      -14.0349391182
 O         2.9520156122       -1.9877323838      -13.6590067421
 C         1.9589098049       -4.1403860262      -13.1156134505
 C         1.9052040430       -3.6023800533      -11.6851721705
 C         0.8595946939       -4.3356709231      -10.8540019196
 O         0.3731096563       -5.3590085650      -11.3704271145
 C         0.4987901541       -3.8327281645       -9.4198265823
 C        -0.3578110549       -2.4683374240       -9.4772919975
 O        -0.6639980821       -1.9496854171      -10.4919711112
 C        -0.9115909266       -1.8599706328       -8.2457029576
 C        -2.2246613456       -1.1491487239       -8.6076650327
 C        -3.4810891735       -1.6802068149       -7.7969255470
 O        -3.2745403681       -2.6004335669       -7.0122622289
 C        -4.8062642310       -1.0034024141       -7.9287675273
 C        -5.9879241728       -1.8977289743       -7.3104241536
 O        -6.8343536124       -1.3496097030       -6.5942059628
 C        -5.8768915178       -3.3567797115       -7.7344049598
 C        -7.2052566006       -4.1762349391       -7.7462515571
 C        -8.1178314921       -3.6401048458       -8.8623087997
 O        -7.6816142787       -3.3522716403       -9.9627142221
 C        -9.7273322500       -3.6702349476       -8.4360953098
 C       -10.0503425134       -4.4070704657       -7.1512004261
 O        -9.7554350830       -3.8932610354       -6.1015741131
 C       -10.6853517377       -5.8215898353       -7.2234129422
 C       -10.6507300630       -6.5847764795       -5.8400104483
 C        -9.2376596516       -7.1675433704       -5.5870829300
 O        -8.2234471746       -6.8467103850       -6.2573719457
 C        -9.0441698039       -8.0375394542       -4.3219383527
 C        -8.1728601718       -7.0143617792       -3.4851338047
 O        -7.1338392031       -6.6143091647       -3.9623156892
 C        -8.7508505509       -6.3778710842       -2.1337411925
 C        -7.5921919777       -5.4746217945       -1.6558059680
 C        -7.2935028622       -4.3212419510       -2.6187633992
 O        -7.9495792981       -4.1212998961       -3.6400290806
 C        -5.9261257514       -3.5234418466       -2.5538443431
 C        -6.3623117417       -2.0203551382       -2.2080591174
 O        -7.0809845745       -1.4830975914       -3.0440643467
 C        -5.8800704892       -1.3214351210       -0.9346208010
 C        -7.0593788305       -0.7135806059       -0.0611734614
 C        -8.1117993071       -1.8700429194        0.2036385689
 O        -8.0983542663       -3.0263692595       -0.2069975842
 C        -9.3354854062       -1.4477353234        1.0689460361
 C       -10.1981232591       -0.5551060123        0.0548019580
 O       -10.2175322593        0.6425475486        0.0931019258
 C       -11.2370559012       -1.3171886545       -0.9203331366
 C       -11.5811586832       -0.4110794956       -2.0671366256
 C       -10.6243896809       -0.3653391186       -3.1815507464
 O       -10.0306238902       -1.3717350646       -3.5087879248
 C       -10.2738814295        0.9732180832       -4.0086844899
 C       -10.7264535252        0.5918126905       -5.4340882559
 O       -10.1692108137       -0.3492693938       -6.0025119275
 C       -11.7827975862        1.4545845510       -6.1173668012
 C       -11.3143365351        2.0574838108       -7.4547291197
 C       -10.2828292662        3.1507492737       -7.2954738271
 O        -9.6587305335        3.2953397001       -6.2450065502
 C        -9.8940087433        4.1515567207       -8.4204461336
 C        -9.0900637199        3.6283043789       -9.6567038432
 O        -9.4236049895        2.6295164397      -10.1557927544
 C        -7.7766493107        4.3677850036      -10.0104483428
 C       -11.2220017961        4.7072329902       -9.1783929286
 C        -9.1919661442        5.2619538314       -7.6672036970
 C       -10.7722345835        2.2806587951       -3.4242551317
 C        -8.7335222666        0.9656137998       -4.0973911926
 C       -10.1433577519       -2.7368717076        1.3916721134
 C        -8.9846892809       -0.5276454540        2.2912986341
 C        -4.9578762099       -4.0929752245       -1.5162501196
 C        -5.2704899325       -3.6492260734       -4.0359352075
 C       -10.3108702037       -8.2002805661       -3.5288390798
 C        -8.2205904730       -9.3732127455       -4.2974798343
 C       -10.0707120562       -2.2019781091       -8.2808997923
 C       -10.4408454072       -4.2244577058       -9.6862834943
 C        -4.7182781933        0.3107842108       -7.0584040547
 C        -5.1294225085       -0.6411295606       -9.4182585787
 C        -0.2880924118       -4.9086015922       -8.5576154539
 C         1.8197235811       -3.5545651154       -8.7625566942
 C         2.6169726955       -3.2139834680      -16.4728235293
 C         3.4000240565       -5.2768168916      -15.2413149821
 C         6.9153826637       -3.0420379049      -18.0201244308
 C         8.8913042639       -1.3578881376      -17.7335561150
 C         4.9352093714       -0.9700653658      -23.6365143862
 C         6.0407367204        1.1223934359      -24.5198612221
 C         2.4526511792        4.6892609468      -18.4244987286
 C         1.0183139983        5.1147048654      -20.3503210670
 H         2.5780228054        7.4428703928      -18.9920965929
 H         3.5247346371        8.2269281705      -20.0516758545
 H         4.3507149102        7.3142242125      -18.8941833636
 H         1.8585832787        3.5408434177      -22.4681437443
 H         2.1375899331        2.0455437433      -21.5529371308
 H         4.6998546781        3.2650547765      -22.5947978811
 H         3.5111514577        2.9225821315      -23.7371418584
 H         8.2664300568       -0.4416745473      -22.8849068443
 H         7.1171564990       -1.6748388163      -22.3338483035
 H         8.6981165581        0.0253267878      -20.5038260251
 H         9.0082892380       -1.6455257038      -20.7791715007
 H         6.6320879810       -0.1768379480      -15.2597686282
 H         7.3917051382       -1.8741562446      -15.4823410596
 H         4.2733541792       -1.2864177104      -15.2388957221
 H         5.2880126010       -1.5718824490      -13.9324697238
 H         2.4219917176       -5.1337625293      -13.1534313767
 H         0.9619683926       -4.1520522951      -13.5303569705
 H         1.6403278892       -2.5786948526      -11.7499010295
 H         2.8542774694       -3.6777198771      -11.2351614324
 H        -0.1315243340       -1.2113349092       -7.8171030293
 H        -1.0929441137       -2.5983910597       -7.4121430104
 H        -2.5001889091       -1.2613775652       -9.6572112563
 H        -1.9945453619       -0.0447882259       -8.5105845165
 H        -5.2006572166       -3.8950307069       -7.0664592763
 H        -5.4262854642       -3.3753468756       -8.7591597982
 H        -7.6897481111       -4.0108661276       -6.7296573986
 H        -6.9124070673       -5.2529747855       -8.0346473638
 H       -10.1559191104       -6.4601105554       -7.9567069573
 H       -11.6169564174       -5.6290544947       -7.6772267190
 H       -11.4348215630       -7.3197569400       -5.8725011582
 H       -10.8800836388       -5.7418023960       -5.1123208911
 H        -8.9849985538       -7.1925875079       -1.3963639534
 H        -9.6308734108       -5.8261033095       -2.4674310323
 H        -6.7231880300       -6.1353974759       -1.5283978167
 H        -7.8443398275       -5.0280157791       -0.6420277622
 H        -5.1859599229       -0.5824124651       -1.2626782013
 H        -5.2364207574       -1.9780155533       -0.2827201969
 H        -7.6066636747        0.0492019886       -0.6375006062
 H        -6.7393906857       -0.2563025090        0.9254728030
 H       -12.1777699992       -1.7120859656       -0.5243548126
 H       -10.6709753970       -2.1839256792       -1.2471450051
 H       -11.6087355716        0.5988050828       -1.5808190042
 H       -12.6412161679       -0.6729042726       -2.3932479904
 H       -12.1724184993        2.2377207999       -5.4601513470
 H       -12.6550017791        0.7982449690       -6.2063826427
 H       -12.2176526030        2.5088382628       -7.9570988268
 H       -10.9980292960        1.1584057584       -8.1315170767
 H        -7.1467936952        4.4493147904       -9.0986952412
 H        -8.1481747135        5.3524743240      -10.4450092862
 H        -7.1861707146        3.9045448380      -10.8221636262
 H       -12.1116039023        4.8768627782       -8.5845656665
 H       -11.7504301406        4.0796995798       -9.9370488668
 H       -10.9545949377        5.5717133651       -9.6395550343
 H        -8.2346859374        4.8880349330       -7.3128529744
 H        -9.7253941594        5.5809817331       -6.7602080555
 H        -8.8636023759        6.0854386972       -8.3645199861
 H       -10.2131684659        3.1564594623       -3.7672742034
 H       -10.5286406299        2.1766646624       -2.3777694051
 H       -11.8471999716        2.3038460319       -3.4968296463
 H        -8.2885535409        1.8851920472       -4.5300268047
 H        -8.2440529956        0.2362145874       -4.7199102176
 H        -8.3237618179        1.0526073373       -3.0788208934
 H       -10.8615448937       -2.5775171713        2.2067927058
 H        -9.4790326175       -3.5629067771        1.7429136620
 H       -10.6289619641       -2.9764384072        0.4789388445
 H        -8.4140140022       -1.0512517451        3.0254273833
 H        -9.8330928000       -0.1305465067        2.7446605394
 H        -8.3233939017        0.3424078102        2.1130590832
 H        -4.4938533870       -5.0630106925       -1.8195087370
 H        -5.3636146149       -4.1831858773       -0.5158232161
 H        -4.1532224407       -3.4089535376       -1.3468773066
 H        -4.2553694938       -3.8777249336       -4.0181562004
 H        -5.5143969445       -2.7299674634       -4.5632186281
 H        -5.6369453423       -4.4725538409       -4.5762210180
 H       -10.7994495145       -7.2380072746       -3.3228630069
 H       -10.1458850554       -8.7665243272       -2.5880619698
 H       -11.1035879531       -8.6867945352       -4.0316898145
 H        -7.1508888579       -9.2459827059       -4.5168132631
 H        -8.7395009853      -10.1359520715       -4.9125501920
 H        -8.2608235801       -9.7299981465       -3.2395873930
 H        -9.6493464029       -1.5486232245       -8.9855494050
 H        -9.7802867418       -1.8467831177       -7.3423631071
 H       -11.1218501391       -2.0725902634       -8.1474026572
 H       -11.4904039999       -4.0166399635       -9.6837062329
 H       -10.2621438913       -5.3136932760       -9.7893067962
 H       -10.0622091776       -3.8187194938      -10.6006947599
 H        -3.7482665617        0.8715886627       -6.9646652102
 H        -5.0957742708        0.0287265817       -6.0853071968
 H        -5.5370140730        1.0214281588       -7.3734451915
 H        -4.2777552077       -0.1017468239       -9.9127215597
 H        -6.0478753464       -0.1228507047       -9.4140700827
 H        -5.3185541689       -1.5774376696      -10.0017256852
 H        -0.7830518838       -4.5685348905       -7.6341351241
 H         0.4890592910       -5.6922787557       -8.2907698583
 H        -0.8834586646       -5.4610976324       -9.2906175770
 H         1.6662723126       -3.5105947459       -7.6289533726
 H         2.2830842367       -2.6437734881       -9.0017961053
 H         2.6102964415       -4.4142134980       -8.8742835992
 H         3.4052257570       -2.9983612730      -17.2221965507
 H         1.8834809267       -2.4815180182      -16.3539661665
 H         1.9158987936       -4.0105182872      -16.9017424417
 H         3.8497440769       -5.7993375409      -14.4135327962
 H         3.8938201442       -5.7488768521      -16.0967839464
 H         2.3396460180       -5.5521834992      -15.3717843900
 H         7.3969265523       -3.6022191325      -18.7713448176
 H         5.8725073147       -3.2588041941      -17.9865354426
 H         7.2276793463       -3.5336497366      -17.0729394781
 H         9.5338046802       -2.1616128398      -18.1131724124
 H         8.9374751025       -1.3108976848      -16.6831240542
 H         9.3895652189       -0.4279994510      -18.0660351806
 H         4.5590601958       -1.6521021633      -22.8423135360
 H         5.8851399847       -1.4467352057      -24.0167464764
 H         4.1220115841       -1.0179741377      -24.3121595479
 H         5.3398119765        1.0488223500      -25.4113057990
 H         6.8647143834        0.5612449027      -24.9108181951
 H         6.1305942953        2.1887580346      -24.3084006981
 H         1.9526141358        5.5253495565      -17.9661279605
 H         3.4555906750        4.6773076430      -17.9334358023
 H         1.9090560989        3.7486285620      -18.2390386123
 H         0.4808324795        5.7015369051      -19.6228079630
 H         0.3547335684        4.1942705011      -20.3329148311
 H         0.9710974044        5.4664657027      -21.3656221350
 Na       -8.4436513230       -2.0320803557       -4.9924479973
 Na        4.8680412845        0.7972342647      -19.8073980885
