232

 C         3.5143289821        7.1967065128      -19.5624670151
 C         3.3015062610        6.0196777068      -20.4322989542
 O         3.8388700558        5.9900235276      -21.5176979578
 C         2.4293738685        4.7425406311      -19.9264430753
 C         3.0452650727        3.4304704918      -20.4796555352
 O         3.8839317624        2.9021976890      -19.7456039974
 C         2.5762112755        3.0390074840      -21.9022242695
 C         3.8449003601        2.6631644150      -22.8306075211
 C         4.2405136663        1.1144078561      -22.6139195421
 O         3.5360604912        0.5273281962      -21.8129576656
 C         5.4817616272        0.3086640439      -23.3373140507
 C         6.5625425641        0.3253049600      -22.2027861564
 O         6.5154845626        1.2515476780      -21.4250904122
 C         7.6656512213       -0.7408367393      -22.1385959546
 C         8.1135190844       -0.9749247741      -20.6942499465
 C         6.9680795695       -1.1615047506      -19.7026883839
 O         5.8351859950       -1.2532888121      -20.1708452813
 C         7.2961594313       -1.5647333271      -18.2313906380
 C         6.3327475413       -0.7980531146      -17.1513049362
 O         5.5619718029        0.1123166441      -17.4964281142
 C         6.4825827639       -1.1826793876      -15.6603576987
 C         5.1879821529       -1.6645664204      -15.1699693878
 C         4.9320237752       -3.2621179646      -15.2913369585
 O         5.8686188123       -4.0112049988      -15.2876611837
 C         3.4512547337       -3.7453430205      -15.3121062866
 C         2.7792547941       -3.1546622012      -13.9786746114
 O         2.8955068479       -1.9502046255      -13.7856906627
 C         1.8605292369       -3.9728517307      -13.0931373245
 C         1.9022582696       -3.4498034616      -11.6655266448
 C         0.7702993058       -4.2779335016      -10.8904112153
 O         0.2609260274       -5.2769519831      -11.2713794068
 C         0.4974958321       -3.7453892340       -9.4160337860
 C        -0.3804674329       -2.4381514427       -9.5653782059
 O        -0.4864353214       -1.9314218579      -10.6668280095
 C        -0.9647559085       -1.6780760794       -8.2320130683
 C        -2.3639636865       -1.0816727844       -8.4918681804
 C        -3.5017711716       -1.7905792819       -7.7505471357
 O        -3.3339121111       -2.7265790836       -6.9838358276
 C        -4.8873719188       -1.0308923399       -7.8196419149
 C        -5.9850833127       -1.9206707537       -7.2674846982
 O        -6.8647281727       -1.4352973052       -6.5823473605
 C        -5.8739835740       -3.3486714427       -7.6812651473
 C        -7.1957788230       -4.1774694667       -7.6769396225
 C        -8.2233299966       -3.7744157944       -8.7997212045
 O        -7.9394247272       -3.3900808133       -9.9099133674
 C        -9.7014543620       -3.7447018968       -8.4091376933
 C        -9.9802435409       -4.4430821698       -7.0953909342
 O        -9.7816905565       -3.9304977073       -6.0194038028
 C       -10.6927127849       -5.7765326004       -7.2226578495
 C       -10.6481900040       -6.7326454466       -5.9446510374
 C        -9.2887747229       -7.1672469415       -5.5922136114
 O        -8.3365021284       -6.9115941541       -6.3047573555
 C        -9.1335839500       -7.9593667597       -4.1701173088
 C        -8.1296318420       -7.0073602293       -3.4439539764
 O        -7.0417579612       -6.7471545832       -3.9174503129
 C        -8.6168006636       -6.3200495644       -2.1462127486
 C        -7.5857574678       -5.3501443689       -1.6719014882
 C        -7.2704104741       -4.2975951986       -2.7624595811
 O        -8.1164235794       -4.0014785765       -3.5869291178
 C        -5.8484789114       -3.5032476813       -2.5531821672
 C        -6.2303763932       -2.0837280759       -2.2766323183
 O        -7.0198209036       -1.4215864118       -2.9985054625
 C        -5.7617778584       -1.3096321672       -1.0316979036
 C        -6.9864058817       -0.7883562590       -0.1544778415
 C        -8.0704128269       -1.7253614459        0.1377651185
 O        -8.0924956597       -2.8178274958       -0.3353017857
 C        -9.3912309836       -1.4374911078        1.0760332469
 C       -10.2542367843       -0.6171847176        0.0871673130
 O       -10.0486297977        0.5731333308        0.0047044694
 C       -11.2153647564       -1.2862278611       -0.8402751619
 C       -11.6918314678       -0.3058454315       -2.0426495102
 C       -10.6270618470       -0.4094372213       -3.1418334557
 O       -10.3290876889       -1.5155847267       -3.5819589500
 C       -10.1666621354        0.9713248635       -3.9525091923
 C       -10.6393392681        0.5642360893       -5.4353111389
 O       -10.3370569569       -0.4415326839       -5.8984393748
 C       -11.7217122770        1.4653027057       -6.1288005927
 C       -11.3533215621        2.1027718132       -7.4832191506
 C       -10.2927771690        3.1687769920       -7.2602085907
 O        -9.6917913592        3.1239306470       -6.2152645903
 C        -9.8843706569        4.2205605773       -8.4086174212
 C        -8.9830410400        3.5145175946       -9.4825148183
 O        -9.3007048667        2.4797443828      -10.0202294135
 C        -7.7958007766        4.2944270520      -10.1092804417
 C       -11.1618041536        4.6193931114       -9.2100689514
 C        -9.0812484131        5.3902949269       -7.6850016145
 C       -10.7096534943        2.2885820034       -3.4092753936
 C        -8.5845464561        1.0586653966       -3.9821260040
 C        -9.9616590402       -2.7654741732        1.4744100330
 C        -8.9352530396       -0.6389290133        2.2910783510
 C        -4.8939782147       -4.0385917071       -1.4298113722
 C        -5.1402594553       -3.6367049442       -3.9247012311
 C       -10.4667388140       -8.2360016384       -3.4695602205
 C        -8.3054938229       -9.2626305807       -4.3688136224
 C       -10.0561961605       -2.2477773961       -8.3122931018
 C       -10.4778018722       -4.3572948943       -9.6789953128
 C        -4.6156361323        0.2666378335       -7.0359901322
 C        -5.3630150240       -0.6679354971       -9.2709726377
 C        -0.2282602860       -4.9363841908       -8.6384016319
 C         1.8352672376       -3.5538200144       -8.6906560060
 C         2.5315829440       -3.2390503050      -16.5577754032
 C         3.4229128070       -5.2623774123      -15.3047886187
 C         6.9821228799       -3.0697354804      -18.1559487193
 C         8.7600596841       -1.3152115009      -17.8819083463
 C         5.1011663284       -1.0807578790      -23.8832415519
 C         6.1351221805        1.1252074043      -24.5044556252
 C         2.6322272874        4.7543996999      -18.3195505437
 C         0.9205048225        4.8586212885      -20.4270387797
 H         2.5032336232        7.5510245182      -19.2062792568
 H         3.8762113095        8.1166773077      -20.0191321217
 H         4.2093800398        7.0851242294      -18.7052458638
 H         2.1002329727        3.9401750215      -22.2559955659
 H         1.7844108031        2.2453923071      -21.7820231764
 H         4.6019892085        3.3461396258      -22.6689289658
 H         3.4969511128        2.9142386595      -23.8703675132
 H         8.3806393819       -0.4795029532      -22.9048913850
 H         7.1592334186       -1.6205549367      -22.4839909652
 H         8.6986782458       -0.0034229351      -20.4496710193
 H         8.8793936566       -1.7248374576      -20.6651667950
 H         6.6478069773       -0.2249953469      -15.2126950048
 H         7.2097498213       -1.9179410854      -15.5210428144
 H         4.2716239758       -1.1859588994      -15.4964596371
 H         5.1072966234       -1.3908580861      -14.1130148708
 H         2.1440220047       -4.9981474872      -13.0933579867
 H         0.8959435954       -3.8234664477      -13.6003525703
 H         1.8314149980       -2.3488099175      -11.5762256804
 H         2.8652763994       -3.7348247111      -11.3067201992
 H        -0.1021543020       -0.9628835431       -7.9233261339
 H        -1.0833516440       -2.3016292616       -7.2878315721
 H        -2.7048454766       -1.1816662059       -9.5617425872
 H        -2.3651304624       -0.0311291014       -8.3132961120
 H        -5.2076266343       -3.9038920653       -6.9762190903
 H        -5.3852449146       -3.4250554213       -8.6888996424
 H        -7.6527237988       -4.0591820437       -6.7301510525
 H        -6.8567594012       -5.1685525390       -7.8776493454
 H       -10.2745219724       -6.4208413948       -8.0274708346
 H       -11.6652314288       -5.4445440219       -7.6659396689
 H       -11.3083339956       -7.5991414476       -6.2214349290
 H       -11.0657288610       -6.1534966438       -5.0710705683
 H        -8.7347086123       -7.1566662611       -1.4631310339
 H        -9.5674335947       -5.8254269444       -2.3552815745
 H        -6.7141048639       -5.9465709959       -1.2333974696
 H        -8.0426357007       -4.8014867284       -0.8761733944
 H        -5.1875045442       -0.3325917989       -1.4276648255
 H        -5.0229386367       -1.6943957199       -0.3273797887
 H        -7.6008812432        0.0634945977       -0.6398898205
 H        -6.6058823284       -0.3865051420        0.7874546450
 H       -12.1142004174       -1.6034255081       -0.2911539390
 H       -10.8013246425       -2.2277470165       -1.1801417505
 H       -11.8752216293        0.7146921705       -1.6321965539
 H       -12.6208155105       -0.7409583931       -2.4195217542
 H       -12.1775213618        2.2596501281       -5.4805469579
 H       -12.6021418155        0.7686051552       -6.2351399603
 H       -12.3140680899        2.5393869126       -7.8702376134
 H       -11.1142129072        1.2748460679       -8.2127143967
 H        -6.9980458144        4.5714869449       -9.4029910706
 H        -8.2712354149        5.1010630412      -10.6699205148
 H        -7.2918071569        3.6799036191      -10.9573756798
 H       -12.0369298492        5.0826651803       -8.7431120986
 H       -11.7017119769        3.7565897570       -9.5877406149
 H       -10.9117066166        5.2107524907      -10.1027446773
 H        -8.0170701628        5.0999482350       -7.6944795380
 H        -9.4089268479        5.4650509431       -6.6202438395
 H        -8.9900234001        6.3817721226       -8.1858306749
 H       -10.0316781742        3.0262085400       -3.9263197648
 H       -10.4422176321        2.4117309764       -2.3531180206
 H       -11.8139550492        2.4443345242       -3.5901559892
 H        -8.1326742885        1.9137490894       -4.3751552353
 H        -8.1520732446        0.3100594033       -4.6871319215
 H        -8.1177089904        1.0651215762       -2.9641272530
 H       -10.7493471725       -2.6416339395        2.3070782562
 H        -9.1823770185       -3.3992984236        1.9414481397
 H       -10.3864625001       -3.1987506059        0.5558382132
 H        -8.2664703331       -1.1822727031        2.9558753172
 H        -9.7056544147       -0.2642303299        2.9134331492
 H        -8.3746389859        0.2236558306        2.0225255443
 H        -4.3034880305       -4.7945525686       -1.7330315690
 H        -5.4150829952       -4.2955780034       -0.5193650539
 H        -4.2678857493       -3.2352633641       -1.0504673552
 H        -4.0706961818       -3.9259486972       -3.7648036053
 H        -5.2592521434       -2.7002489602       -4.4135986793
 H        -5.4472837040       -4.4331162987       -4.5313860386
 H       -11.2372446080       -7.4680633024       -3.6579046951
 H       -10.4953246873       -8.4603342884       -2.3644738584
 H       -10.9662711452       -9.0880714491       -3.9470678634
 H        -7.2878290782       -9.0377227783       -4.6023813592
 H        -8.8526793152       -9.7980123155       -5.1240418616
 H        -8.2473374779       -9.8689348316       -3.4647895108
 H        -9.5671340038       -1.6422690928       -9.0850739523
 H        -9.7783129549       -1.7999303925       -7.3703891303
 H       -11.1228667380       -2.0996675770       -8.2598226826
 H       -11.5103175294       -4.5010033490       -9.3381600521
 H       -10.0793970980       -5.3272202422       -9.9110921458
 H       -10.5305283114       -3.8074418881      -10.5612599740
 H        -3.7802583707        0.8446582144       -7.4880234737
 H        -4.4428820143        0.1071284619       -5.9545076226
 H        -5.4507215633        0.9407963576       -7.0917860497
 H        -4.5920973519       -0.2161222091       -9.8493760621
 H        -6.2980058930       -0.1349660197       -9.3413149970
 H        -5.5342782062       -1.6887989551       -9.6829598872
 H        -0.7116057227       -4.5976212034       -7.6005527793
 H         0.4973271883       -5.7122189712       -8.4024607280
 H        -0.9018444761       -5.3490044809       -9.3481917436
 H         1.7819774054       -3.5484115123       -7.5477726050
 H         2.4366169420       -2.6448428978       -8.9424800101
 H         2.4567286531       -4.4678444516       -8.8819748286
 H         3.1082240870       -2.5266118108      -17.0424843402
 H         1.4416223910       -3.0165487277      -16.4815705266
 H         2.4382336566       -4.0485312430      -17.2186634085
 H         3.9618812528       -5.7949776201      -14.5072333383
 H         3.9261618547       -5.6627565479      -16.1826520004
 H         2.3998751952       -5.6194854385      -15.3919560402
 H         7.6862995252       -3.6061988579      -18.7554951108
 H         6.0228733394       -3.3370671999      -18.3734779753
 H         7.0274733695       -3.4944601243      -17.1599849584
 H         9.4085943934       -1.9092272645      -18.4845065185
 H         8.9772948528       -1.3871471318      -16.7679284508
 H         9.0253933116       -0.3025002901      -18.0663646512
 H         4.6083917297       -1.7957263864      -23.1066803996
 H         5.8581812013       -1.6495188591      -24.3823964131
 H         4.1491283724       -0.8935971267      -24.4352336179
 H         5.4255388481        1.2438397983      -25.4136506615
 H         7.0030335696        0.5748479288      -24.9567669593
 H         6.2720037890        2.1261264276      -24.1521141726
 H         1.9513421230        5.5024277750      -17.9151753398
 H         3.6555151697        4.9940357051      -17.9467623097
 H         2.3313573253        3.7306653200      -17.8847387019
 H         0.2911422749        5.4609116869      -19.6879409163
 H         0.3008962096        3.9884839796      -20.4527852071
 H         0.9409632337        5.2636948528      -21.4644034684
 Na       -8.4136478693       -2.1270540261       -5.0319496028
 Na        4.9257513827        0.8985826963      -19.7935543819
