232

 C         3.4595471078        7.1634552799      -19.5341094143
 C         3.2377437692        6.0321591661      -20.4869538743
 O         3.6510678954        5.9870575321      -21.5974852707
 C         2.3813200039        4.7258522688      -19.8401457388
 C         3.1533440334        3.4438775117      -20.4428593884
 O         3.9563591414        2.8380693140      -19.7665799509
 C         2.8736211175        3.1461046102      -21.9247591106
 C         3.9989759880        2.5266397448      -22.9133281953
 C         4.2337354875        1.1317070757      -22.6604080930
 O         3.6271813786        0.4429017269      -21.8328367771
 C         5.4596251772        0.4160824739      -23.3789357586
 C         6.5890481974        0.2838136318      -22.2162763914
 O         6.6329471520        1.1382914228      -21.4133336440
 C         7.7628483721       -0.7395257540      -22.1789803269
 C         8.0971454464       -0.9939002889      -20.6809822631
 C         6.8486544109       -1.1902237418      -19.7440160220
 O         5.7130279958       -1.0690055122      -20.2039001779
 C         7.1802619157       -1.5937575962      -18.3130723280
 C         6.3602613672       -0.6941880504      -17.3057018153
 O         5.6699799543        0.2680351314      -17.5513483150
 C         6.4440423703       -1.2027545143      -15.8037097971
 C         5.0818241933       -1.6320831803      -15.2814964576
 C         4.8280336122       -3.1651421102      -15.3166344943
 O         5.7757361726       -3.8913740990      -15.3091899551
 C         3.4459984695       -3.7630006559      -15.3240188584
 C         2.6505510098       -3.0684987275      -14.0372058897
 O         2.8310850615       -1.8862511154      -13.8700755959
 C         1.7625192982       -3.9020696944      -13.1308385395
 C         1.7673660004       -3.4688785746      -11.6208419606
 C         0.7983484521       -4.2296677866      -10.7839249099
 O         0.1614226666       -5.1312308013      -11.2783375472
 C         0.5141585287       -3.7403872041       -9.3664516569
 C        -0.2738396346       -2.4202063489       -9.5408616861
 O        -0.3907389226       -1.9169897170      -10.6769540309
 C        -0.9287875949       -1.7157535827       -8.3729222472
 C        -2.3566047967       -1.1493991006       -8.5532708898
 C        -3.3928030414       -1.7783846710       -7.7248293447
 O        -3.3238561733       -2.7585346676       -7.0345757997
 C        -4.8693351974       -1.0430944448       -7.7631620569
 C        -6.0209638344       -1.9703951220       -7.2081147029
 O        -6.9089885548       -1.5246633062       -6.5093420885
 C        -5.9102133724       -3.4503364862       -7.6627514325
 C        -7.2560846734       -4.2243953758       -7.6672808942
 C        -8.2466921164       -3.7979762317       -8.7346113302
 O        -7.8895803248       -3.4738193621       -9.8457992457
 C        -9.8203559828       -3.8065650808       -8.3621242544
 C       -10.1423915879       -4.5009286793       -7.0416643386
 O        -9.7898951877       -4.0216022200       -5.9293453210
 C       -10.7934778631       -5.9150437108       -7.2379471811
 C       -10.7609729070       -6.8113078840       -6.0009003966
 C        -9.3658122182       -7.2003913702       -5.6006356166
 O        -8.4278550217       -7.0751405027       -6.2961597701
 C        -9.1988954542       -7.8808379772       -4.2546294173
 C        -8.0989507034       -6.9940198209       -3.4032753379
 O        -6.9671653163       -6.8836343371       -3.7829303805
 C        -8.5402814413       -6.2877935428       -2.1021867389
 C        -7.5513446291       -5.2939616952       -1.5992186063
 C        -7.1968919382       -4.1819203785       -2.6471733287
 O        -8.0310597538       -3.8883032967       -3.4415847815
 C        -5.8157981085       -3.4791754209       -2.5410264952
 C        -6.3287457380       -1.9742681810       -2.2813973995
 O        -6.9572284937       -1.3981798465       -3.1214948071
 C        -5.7990109668       -1.1912640117       -0.9964127333
 C        -6.9132786833       -0.5976556791       -0.2016888284
 C        -8.0221874466       -1.7380553795        0.0687310024
 O        -7.9767672874       -2.7416277532       -0.6121000837
 C        -9.2569820859       -1.4880526172        1.0305444844
 C       -10.2612242938       -0.5065954729        0.0679682703
 O        -9.8710178434        0.6497328677       -0.0739409388
 C       -11.2846883341       -1.2638681161       -0.7974847752
 C       -11.7151552500       -0.2054926599       -1.9719268665
 C       -10.6942642497       -0.3798241511       -3.1818719846
 O       -10.4693578401       -1.5383785118       -3.5459202221
 C       -10.0726057536        0.8894714756       -3.9501767653
 C       -10.6445994498        0.6407268313       -5.4290178242
 O       -10.3552143760       -0.4813029074       -5.9004230635
 C       -11.7845721031        1.4400327080       -6.1674931722
 C       -11.3554206493        2.1473515179       -7.5117301470
 C       -10.1881846255        3.1096779861       -7.2507549554
 O        -9.6052704722        3.0645571117       -6.1864927175
 C        -9.7907029214        4.1276691339       -8.3867330038
 C        -8.9153985594        3.4297771007       -9.4421905222
 O        -9.2301281688        2.2464155683       -9.7537385514
 C        -7.8303115347        4.2357596659      -10.1966027334
 C       -10.9648651115        4.6380788658       -9.1226566642
 C        -9.1865396601        5.4579538446       -7.7903594387
 C       -10.6623911630        2.1666364972       -3.2732180787
 C        -8.5413040833        1.0200722569       -3.8508890846
 C        -9.8533345084       -2.8244099409        1.6298379346
 C        -8.8777166780       -0.6530833820        2.3030196950
 C        -4.9551124992       -4.1419784162       -1.4765097828
 C        -4.9955419230       -3.5538429855       -3.8908348325
 C       -10.4882333424       -8.2851239146       -3.4649431582
 C        -8.4383656451       -9.2067960436       -4.5724054432
 C       -10.1353617576       -2.2706091075       -8.4200895637
 C       -10.5234914465       -4.4330428986       -9.6082423814
 C        -4.7258480967        0.3038326302       -6.9335841014
 C        -5.4642913588       -0.6936562620       -9.1710852762
 C        -0.3098733026       -4.8589562724       -8.7187096297
 C         1.8184878863       -3.3996499052       -8.5548081562
 C         2.6568790663       -3.1976430907      -16.5164964658
 C         3.4691340363       -5.3300576834      -15.3573693769
 C         7.0342604004       -3.1166964595      -18.2278849726
 C         8.6015911722       -1.2247277828      -17.9776999185
 C         5.1695747018       -1.0340151064      -24.0012958182
 C         6.1363868078        1.2256868796      -24.4993108568
 C         2.5885751685        4.7422111485      -18.3217214457
 C         0.9844259309        4.7629145076      -20.2959948500
 H         2.5906157378        7.8006275153      -19.2273837668
 H         4.1600715377        7.9570213795      -19.8960199061
 H         3.9994156763        6.8414601426      -18.6530844046
 H         2.4052742141        4.0516646351      -22.3074920505
 H         2.0384415803        2.3850945867      -21.7796796186
 H         4.9409508509        3.0325043941      -22.8284771172
 H         3.6002186822        2.7324700144      -23.9456455436
 H         8.4631650901       -0.3095584934      -22.8024848097
 H         7.4503532912       -1.7799849528      -22.6477617413
 H         8.7076795517       -0.1159580295      -20.3942132890
 H         8.7906035200       -1.7930004680      -20.6757644967
 H         6.7860817257       -0.3471683864      -15.2139293698
 H         7.0815177561       -2.0460966857      -15.7513667115
 H         4.1966368601       -1.1478846164      -15.6550615481
 H         4.9086213795       -1.3740806285      -14.2506843653
 H         1.9797110225       -4.9489939075      -13.2951331988
 H         0.7867420246       -3.6853830852      -13.6021696957
 H         1.4137712767       -2.4035302418      -11.5408989368
 H         2.8446749626       -3.4773281442      -11.2524331777
 H        -0.1758136247       -0.8941811410       -8.1756963961
 H        -0.9029952836       -2.2254639804       -7.3930419108
 H        -2.7304290318       -0.9794585661       -9.5775605276
 H        -2.2789643860       -0.1772481355       -8.0909447299
 H        -5.2651708809       -4.0220847778       -6.9496717034
 H        -5.4123799100       -3.5364937987       -8.6265870035
 H        -7.7149079979       -4.1320481410       -6.7197871325
 H        -7.0414715509       -5.2205428436       -7.8441764143
 H       -10.3579305055       -6.5325027012       -8.0347911880
 H       -11.8287347498       -5.6631229760       -7.6777060532
 H       -11.3870562924       -7.6951702174       -6.3376950223
 H       -11.2900628816       -6.2834632201       -5.2184731413
 H        -8.6554688556       -7.1135442082       -1.4425881957
 H        -9.4960383587       -5.7877144953       -2.2847535511
 H        -6.6413414499       -5.8916243550       -1.4857104395
 H        -7.8376526434       -4.9845053163       -0.6168992547
 H        -4.9928461664       -0.4081684567       -1.1827090096
 H        -5.3119239597       -1.8074346173       -0.2180289230
 H        -7.5017251916        0.2382817519       -0.6457954771
 H        -6.4564808566       -0.2320827809        0.6990773015
 H       -12.1542126000       -1.4776015136       -0.1756473169
 H       -10.9411495561       -2.2676015872       -1.1268175155
 H       -11.8309361554        0.7583504111       -1.5213133713
 H       -12.6349467428       -0.5591932249       -2.3584754304
 H       -12.2374805284        2.1940999593       -5.4967424341
 H       -12.6379260383        0.7291129317       -6.3079628392
 H       -12.2654571484        2.5062632412       -8.0119820355
 H       -11.0367485044        1.3929586762       -8.1757888763
 H        -7.0936873990        4.4189927841       -9.4058966027
 H        -8.1821649926        5.0752209928      -10.7707207738
 H        -7.3220140329        3.6267547070      -10.9104697473
 H       -11.6768809106        5.3033422063       -8.6428993398
 H       -11.6721408193        3.8739847539       -9.3301913364
 H       -10.7617860634        5.0777851044      -10.1777409491
 H        -8.0604658009        5.5035254810       -7.8127771638
 H        -9.6353191935        5.6529650759       -6.8054720603
 H        -9.3700190251        6.2994511149       -8.4173688016
 H       -10.4153412901        2.9082477051       -4.0510809994
 H       -10.1102412416        2.5387509840       -2.3629599862
 H       -11.7721733046        2.0439953379       -3.1483558575
 H        -8.1640980182        1.9351295399       -4.3225163147
 H        -7.9961706436        0.3430010039       -4.4888302128
 H        -8.1507805076        1.1611168164       -2.8702124917
 H       -10.7520791428       -2.5869510204        2.2148346788
 H        -9.1602008415       -3.1785591629        2.3960768318
 H       -10.0621889911       -3.5901533744        0.8100663089
 H        -8.1270120030       -1.0398616845        2.9933059631
 H        -9.7962790983       -0.5914973100        2.9664273411
 H        -8.6458407731        0.3660349109        2.1347235660
 H        -4.8442073321       -5.2155161148       -1.6572031565
 H        -5.3865824783       -3.9502229395       -0.5323199222
 H        -3.9919332857       -3.6659369449       -1.3962102035
 H        -3.9223905411       -3.6038345507       -3.6085872404
 H        -5.2402144420       -2.6870225321       -4.4847333587
 H        -5.0693675193       -4.5304510298       -4.4563738568
 H       -11.3873833707       -7.6603979935       -3.5845831385
 H       -10.3572525108       -8.4004245027       -2.3982585629
 H       -10.8888441804       -9.2890375709       -3.8470201361
 H        -7.4494440135       -8.9856032206       -4.9361765455
 H        -9.1018240611       -9.6780296992       -5.2414314802
 H        -8.2463808020       -9.8105361793       -3.7355383796
 H        -9.7621856855       -1.8151353471       -9.3686699996
 H        -9.5618694947       -1.7098684242       -7.6221683338
 H       -11.1703740667       -1.9642652896       -8.1743429890
 H       -11.5162954957       -4.7448041657       -9.3072405234
 H       -10.0091614991       -5.2834964439       -9.9680364192
 H       -10.7017159294       -3.7303708574      -10.4514459416
 H        -4.4338564126        1.0541349561       -7.6287560974
 H        -3.9599368976        0.2496973293       -6.1476432443
 H        -5.6037800021        0.6839363451       -6.4656620653
 H        -4.7979254074       -0.0671996998       -9.7311855061
 H        -6.4461007119       -0.1289965634       -9.0823892308
 H        -5.6734380286       -1.5911161546       -9.6704422165
 H        -0.4765390188       -4.4858259036       -7.7267240817
 H         0.2303146355       -5.7882153230       -8.5828718011
 H        -1.2560119202       -4.9710358364       -9.3109908189
 H         1.7946550548       -3.0608482049       -7.5563715992
 H         2.3234795106       -2.5518078416       -9.1702633544
 H         2.4741745296       -4.2074599612       -8.5279198176
 H         2.6131264406       -2.1135845682      -16.4752119658
 H         1.7055027540       -3.7196545878      -16.5238737217
 H         3.0173627530       -3.5453842490      -17.4372342958
 H         4.1851368166       -5.6369763303      -14.5959032588
 H         4.0301949376       -5.6446228534      -16.2352891622
 H         2.6006908010       -5.9553375753      -15.3353802124
 H         7.8800888481       -3.6139366095      -18.6849592659
 H         6.0750311817       -3.4434760309      -18.6941406283
 H         6.8489994493       -3.5414084557      -17.3180709722
 H         9.2413774542       -1.5916691979      -18.7598090085
 H         8.9206014327       -1.5725815753      -16.9841184400
 H         8.7700596616       -0.1525398324      -17.8597352184
 H         4.7548197693       -1.6352358612      -23.2079422357
 H         5.9774963704       -1.6118903096      -24.4379278360
 H         4.1871014939       -0.9724557376      -24.5527924279
 H         5.5074835411        1.4899551214      -25.3372368969
 H         6.9253988907        0.5148163790      -24.8873796127
 H         6.5006854629        2.2183689764      -24.1453104829
 H         1.9884162176        5.5681815132      -17.7954387660
 H         3.6719338585        4.8108044234      -18.0736786001
 H         2.3093090827        3.7789178356      -17.8758367160
 H         0.3329199700        5.3599299219      -19.6538054593
 H         0.4571714549        3.8378159568      -20.1816305573
 H         0.9432922705        5.0262011130      -21.3753432035
 Na       -8.5018207562       -2.2296260547       -5.0031631385
 Na        4.9612268115        0.9585363868      -19.7014484322
