232

 C         3.4235715747        7.2438462123      -19.6413900033
 C         3.0396935361        6.0881536940      -20.4966968648
 O         3.1564576625        6.1714774499      -21.7097931019
 C         2.5096604808        4.6651492885      -19.7796376555
 C         3.2109740682        3.4609452931      -20.4387718727
 O         4.1035822889        2.8651989250      -19.8522410756
 C         3.1081894202        3.2375017050      -21.9812502674
 C         4.2946439257        2.5930063440      -22.6515980365
 C         4.4647308715        0.9933674852      -22.5957551546
 O         3.7331944972        0.2881185495      -21.9202989431
 C         5.6344923184        0.4626380344      -23.4054455140
 C         6.7872396908        0.4283662624      -22.3822002898
 O         6.8272272991        1.2958676541      -21.4410666413
 C         7.6489080662       -0.8321657962      -22.3540003672
 C         8.1003358812       -1.2191382920      -20.9144972522
 C         6.9060642357       -1.2340136281      -19.9675664865
 O         5.7443301453       -1.1956776994      -20.3197531357
 C         7.1817289770       -1.5683362147      -18.4101738718
 C         6.4059841845       -0.6817280797      -17.3771701800
 O         5.8732447685        0.3419127926      -17.8059809562
 C         6.3012401744       -1.1002727550      -15.9568798158
 C         4.9238403250       -1.4614610658      -15.4419959561
 C         4.7681774807       -2.9985082826      -15.3386543541
 O         5.7443183882       -3.7199658809      -15.4043967933
 C         3.3978130991       -3.6406748937      -15.3600096110
 C         2.5575455148       -3.0193419810      -14.1057913741
 O         2.4368035770       -1.8187508337      -13.8787591477
 C         1.6979158717       -3.9762137289      -13.1887201608
 C         1.7822242148       -3.4941173426      -11.7390980433
 C         0.7081092854       -4.1409104111      -10.8497015186
 O         0.0737875304       -5.0441934266      -11.2987849560
 C         0.4678062177       -3.5268736620       -9.3533075693
 C        -0.3408738885       -2.2591204896       -9.5196894866
 O        -0.4617303869       -1.7478512713      -10.5954905008
 C        -1.0526633856       -1.6641190091       -8.3290236770
 C        -2.3939415686       -1.0381145024       -8.6817514320
 C        -3.4864787861       -1.7028197399       -7.7548633542
 O        -3.1469484859       -2.7355867168       -7.1656264877
 C        -4.9253520583       -1.0582785074       -7.6953031397
 C        -6.0407707769       -2.1588229316       -7.1649436420
 O        -6.8454396882       -1.7889682573       -6.3268236035
 C        -6.0065519919       -3.6305184760       -7.6147529513
 C        -7.3551759787       -4.2931786619       -7.4258792493
 C        -8.3072926608       -3.9451471856       -8.5728624057
 O        -7.8132022105       -3.6226483398       -9.6246760426
 C        -9.8766915354       -3.9104462988       -8.4412158592
 C       -10.2650707841       -4.6857332411       -7.1514510668
 O       -10.0603998889       -4.2237905241       -6.0696817271
 C       -11.0622526387       -6.0506753372       -7.2684991829
 C       -10.9287083205       -6.7852268052       -5.9111526791
 C        -9.5507062173       -7.2314081360       -5.6312030986
 O        -8.7224486186       -7.0803661215       -6.5324119597
 C        -9.1756694040       -8.0167901158       -4.2482007007
 C        -8.1173100680       -7.2026951338       -3.3783654766
 O        -6.9312653809       -7.2029926532       -3.5775800282
 C        -8.6354027307       -6.2579200995       -2.2352711698
 C        -7.4109831912       -5.4629467139       -1.6788149791
 C        -7.1424549544       -4.2751336518       -2.5248123227
 O        -8.0242552459       -3.9322597153       -3.3414595176
 C        -5.7797136295       -3.4967656990       -2.4126501983
 C        -6.1667371675       -1.8986116266       -2.1799489876
 O        -6.6791269531       -1.3045966660       -3.1337481046
 C        -5.6165181280       -0.9953249926       -1.0641840969
 C        -6.8784400585       -0.4014695452       -0.2847150241
 C        -7.9252892184       -1.5859087849       -0.0532437211
 O        -8.0401526003       -2.5763398444       -0.7375301064
 C        -9.0968439501       -1.3422765703        1.0227345023
 C       -10.0041631761       -0.4655584531        0.1403065550
 O        -9.6362948004        0.6456884801       -0.1581865752
 C       -11.2758301544       -1.1026261120       -0.5655637209
 C       -11.6522685781       -0.2938977684       -1.7807481965
 C       -10.7606844238       -0.4517107392       -2.9893473479
 O       -10.3975294346       -1.5148522238       -3.3024007978
 C       -10.3360174384        0.7844527814       -3.8725421336
 C       -10.6401957225        0.5664369744       -5.4040056713
 O       -10.0161757852       -0.3112909526       -5.9848080244
 C       -11.7357341154        1.4783275221       -6.0386891608
 C       -11.1567009239        2.0733620473       -7.2999903690
 C       -10.1133011249        3.1902616301       -7.1241094815
 O        -9.2689864924        3.1775626420       -6.2362567425
 C        -9.8632531870        4.0751561494       -8.3488221780
 C        -8.8893101657        3.1976961217       -9.3303885043
 O        -8.8528258871        2.0351150203       -9.2166423177
 C        -7.9395527084        3.9106809318      -10.2288971938
 C       -11.0371512108        4.4889591818       -9.1505823257
 C        -8.9868623268        5.2593701652       -7.7756341443
 C       -10.8263316791        2.2051559838       -3.4032370369
 C        -8.7955236548        0.7603730374       -3.8512277553
 C        -9.7152433383       -2.7660431905        1.2934634008
 C        -8.6867024857       -0.4602817715        2.1511804933
 C        -4.6950313868       -3.8912501042       -1.3423978650
 C        -5.1695333911       -3.4212027166       -3.8401488531
 C       -10.4330388322       -8.2612770460       -3.3356803299
 C        -8.4861311435       -9.3192521161       -4.6992312092
 C       -10.3402384017       -2.4245201694       -8.2528619837
 C       -10.5771390469       -4.4241276066       -9.7318021999
 C        -4.9636084456        0.0663919131       -6.6917558240
 C        -5.3520605533       -0.7120739839       -9.1296320872
 C        -0.3972460065       -4.5628217291       -8.5299322153
 C         1.7132773332       -3.3065411400       -8.5309451993
 C         2.6044818303       -3.1943900906      -16.7228739118
 C         3.4815278842       -5.1470893563      -15.2456831110
 C         6.9626183434       -3.0848438571      -18.3614025039
 C         8.6027686396       -1.1598678687      -17.9950882260
 C         5.1913513118       -0.8296170190      -24.0138340439
 C         6.1431438218        1.4435119717      -24.5597977609
 C         2.6744385100        4.4930079788      -18.2547949486
 C         1.0020821743        4.6601411173      -20.3011920637
 H         2.5925274704        7.8519719561      -19.3869398054
 H         4.0519065243        7.9200451154      -20.1241726526
 H         3.9481821465        7.0696123504      -18.7187769014
 H         3.0415339084        4.2930943826      -22.2918683848
 H         2.2211402568        2.7510213723      -22.3484718964
 H         5.1789764293        3.2383129052      -22.3851423682
 H         3.9657290372        2.8603296182      -23.6725756641
 H         8.5176273546       -0.8018384661      -23.1532993975
 H         7.0693172936       -1.6183056009      -22.6716878602
 H         8.9502145314       -0.6064055363      -20.6508515508
 H         8.5421398734       -2.2352929787      -20.9738100551
 H         6.5166332247       -0.1874751481      -15.3489543542
 H         7.1222685177       -1.8909289351      -15.8864179681
 H         4.0506448876       -0.9757988280      -15.8675621665
 H         4.7737885978       -1.1088757080      -14.3939179506
 H         1.9422006297       -5.0522375169      -13.2936466396
 H         0.6315286348       -3.8852211550      -13.5143586666
 H         1.7830263288       -2.4070047395      -11.6741780384
 H         2.7246803152       -3.8301664971      -11.3368192090
 H        -0.3684103647       -1.0215337277       -7.8096019723
 H        -1.1509806087       -2.3822547886       -7.5649181286
 H        -2.4660843975       -1.2902379908       -9.7523879376
 H        -2.4158556867        0.0766741022       -8.5483797524
 H        -5.2961809218       -4.0752046499       -6.9452031313
 H        -5.5618955967       -3.8031508626       -8.6032207259
 H        -7.7587826290       -3.9531668988       -6.4063008449
 H        -7.2730395010       -5.4786195779       -7.3634092246
 H       -10.7140272555       -6.6626689025       -8.0946770567
 H       -12.0411052531       -5.8419454263       -7.5348246470
 H       -11.6984570641       -7.5018857850       -5.8133055779
 H       -11.1955498607       -5.9733873162       -5.2233388795
 H        -9.1174550216       -6.9833718286       -1.5230161429
 H        -9.3552768309       -5.5174969592       -2.5823293733
 H        -6.4904899311       -6.0545433237       -1.5038168089
 H        -7.6607109167       -5.0993263434       -0.6472153263
 H        -5.0303798472       -0.1634539497       -1.4587619185
 H        -4.9492637691       -1.4808471315       -0.4326700599
 H        -7.3142024842        0.3676302672       -0.8924468249
 H        -6.6733080686        0.0594387710        0.6896685418
 H       -12.1383785264       -1.3375240483        0.0940688488
 H       -10.9659754529       -2.0530537621       -1.0064421396
 H       -11.3608292705        0.7267845913       -1.4595690198
 H       -12.7374392551       -0.3338552174       -2.0477216434
 H       -12.0916857519        2.2800046046       -5.4306475982
 H       -12.5969728684        0.9054902780       -6.2569451845
 H       -11.9664965876        2.2247362718       -8.0151664760
 H       -10.6682588830        1.2478235229       -7.8962167423
 H        -7.0608029160        4.1439429072       -9.6863952434
 H        -8.4126673927        4.7376147532      -10.6952277763
 H        -7.7316683615        3.2135790831      -11.0907985033
 H       -11.9232885091        4.7676467769       -8.5930444268
 H       -11.4756798656        3.7046810136       -9.8009360563
 H       -10.9364615305        5.2918470106       -9.7963625076
 H        -8.2758879969        4.9379912933       -7.0991911259
 H        -9.6924384730        5.9858212902       -7.4358806842
 H        -8.3849075545        5.7969977459       -8.5178405445
 H       -10.2744514358        2.9498452215       -3.9566935671
 H       -10.5899493035        2.3439582039       -2.3864095063
 H       -11.8849934243        2.3430833334       -3.5272828934
 H        -8.3118252494        1.5512260151       -4.3479606115
 H        -8.4456856080       -0.0345324935       -4.5265147666
 H        -8.2788884651        0.7618990539       -2.8924214429
 H       -10.7931539043       -2.7238715373        1.4049447703
 H        -9.3248582258       -3.1687762098        2.2202007145
 H        -9.4895523610       -3.4029320256        0.5096042990
 H        -7.6638465883       -0.7533695501        2.5089180228
 H        -9.1861155420       -0.4709236634        3.0919969765
 H        -8.6582184093        0.6321703136        1.8418902475
 H        -4.2384032558       -4.8353199848       -1.5772240018
 H        -5.1482624450       -3.9437316634       -0.2877473689
 H        -3.8893628228       -3.0959919469       -1.3120793800
 H        -4.5632397612       -2.4883049772       -3.9469792480
 H        -5.9918919143       -3.4502997416       -4.5806054875
 H        -4.4901911430       -4.2251533194       -3.9546705220
 H       -10.6963006739       -7.4166745037       -2.7279764021
 H       -10.2552215413       -9.0237371500       -2.5685550869
 H       -11.3073197338       -8.5666500409       -3.7823924445
 H        -7.6260967846       -8.9665273344       -5.2288887543
 H        -9.1588319288      -10.0250654871       -5.2019946924
 H        -7.9223590222       -9.7407631346       -3.8504336452
 H       -10.4746941797       -1.9820012986       -9.2414724987
 H        -9.7075117740       -1.7142759324       -7.7411016216
 H       -11.3341296742       -2.3693649047       -7.7830086576
 H       -11.6413369760       -4.1626433047       -9.9415138986
 H       -10.4674786447       -5.5571052737       -9.7846667759
 H        -9.9594313689       -4.0153776366      -10.5064404803
 H        -5.6831969352        0.8812253643       -6.8984668088
 H        -4.0038563860        0.5472047188       -6.6048411918
 H        -5.2466928647       -0.2620446928       -5.6967626977
 H        -4.7341427480        0.1255015598       -9.4790931995
 H        -6.3260619717       -0.3259374341       -9.1870968352
 H        -5.2440788649       -1.6335261664       -9.7898687245
 H        -0.2813100349       -4.7036050696       -7.4005770714
 H        -0.0923356856       -5.5087318716       -8.9183736299
 H        -1.3647439529       -4.3674523108       -8.8216190333
 H         1.3691558923       -2.7491123524       -7.6702299774
 H         2.4599274482       -2.6990214957       -8.9336411527
 H         2.0822383202       -4.2164445388       -8.0697275373
 H         1.5433666852       -3.1190147886      -16.4174799528
 H         2.7847533751       -3.8861270313      -17.6131371516
 H         2.9599776544       -2.1862443174      -17.0968911229
 H         3.9233566157       -5.4437841161      -14.2988449236
 H         3.9529163174       -5.7317473685      -16.0263658468
 H         2.4488404542       -5.5277762868      -15.2448078658
 H         7.8031964115       -3.5915986178      -18.8841785170
 H         6.0422136698       -3.4230505466      -18.7622246576
 H         6.8593540232       -3.6211268582      -17.3306701415
 H         9.4214389096       -1.5901010953      -18.5698309489
 H         8.7913025565       -1.3093575817      -16.9213482437
 H         8.6752625999       -0.0838203048      -18.0026645222
 H         4.7741058012       -1.5612583374      -23.2963111426
 H         6.1365594510       -1.2603229231      -24.3237471340
 H         4.4666655719       -0.8462991496      -24.7668654590
 H         5.2707239084        1.8183330441      -25.1719954731
 H         7.0266305674        1.0185467289      -25.0262481010
 H         6.4889310120        2.3473368095      -24.1305356734
 H         2.3495831998        5.3432163541      -17.7685571556
 H         3.6279137608        4.1085462296      -17.9594696726
 H         1.9976227086        3.7133801843      -17.9014258019
 H         0.4528726496        5.5459931913      -19.9603806763
 H         0.4534466990        3.8400112366      -19.8434486506
 H         0.8912079712        4.5975949180      -21.3454534209
 Na       -8.9249656713       -2.3080404996       -4.9172667279
 Na        5.0432253455        0.9938881745      -19.6508547079
