232

 C         3.4074959549        7.3286395373      -19.7332212366
 C         2.6845086933        6.2096142594      -20.4178154425
 O         2.4173053201        6.3874538420      -21.5755528874
 C         2.3600934274        4.7313383290      -19.8427019498
 C         3.3442023443        3.6685827092      -20.3772389909
 O         4.2031521802        3.1175093280      -19.7082966915
 C         3.2220895154        3.4854825284      -21.9374113711
 C         4.3671051878        2.8888533000      -22.8332322359
 C         4.6275429948        1.3544908843      -22.9085324044
 O         3.9494801763        0.6057520878      -22.2345102202
 C         5.7628078144        0.7295862595      -23.6833682717
 C         6.9170261190        0.2669860175      -22.5383737232
 O         7.2593561776        1.1539108006      -21.7039670478
 C         7.6745594350       -1.1065748171      -22.3893546623
 C         8.3101925723       -1.3125068480      -20.9034498532
 C         7.1820551557       -1.4865147972      -19.9394329786
 O         6.0005350528       -1.4276215989      -20.2495107557
 C         7.4855354446       -1.6985400625      -18.4148048688
 C         6.4801948693       -0.6763061664      -17.6371034597
 O         5.7273523961        0.1413202394      -18.1901486446
 C         6.2041165918       -0.8654097289      -16.1899234310
 C         4.7740051073       -1.2842994207      -15.7950547202
 C         4.6481051804       -2.8880882142      -15.5054177567
 O         5.6473535230       -3.5163633781      -15.4117030355
 C         3.2339935254       -3.5244924246      -15.4699909977
 C         2.3501164155       -2.9399539072      -14.1895440241
 O         2.2031830106       -1.7377297586      -14.0671279844
 C         1.6952417751       -3.9067660171      -13.1653393132
 C         1.4531091720       -3.1699598277      -11.8600268651
 C         0.5727047527       -3.9696197459      -10.8492950250
 O        -0.0415753602       -4.8953099832      -11.2747906880
 C         0.3073806296       -3.3173698984       -9.4272844613
 C        -0.6128919143       -2.0311896796       -9.5641060005
 O        -0.6264405658       -1.3373427767      -10.5988048534
 C        -1.1460368681       -1.3671090849       -8.2456106947
 C        -2.6223582224       -0.9773969098       -8.4469581577
 C        -3.6346265348       -1.8804628821       -7.6227834538
 O        -3.3284713879       -2.9371866159       -7.0504990145
 C        -5.1347881893       -1.3865196156       -7.4169428004
 C        -6.1317481247       -2.3756264886       -6.8114855369
 O        -7.0315522712       -1.8952738461       -6.1646992166
 C        -6.0709183403       -3.7921264332       -7.4092091544
 C        -7.3785825255       -4.5636198790       -7.4282670003
 C        -8.4244015271       -4.1843812672       -8.5300453058
 O        -8.0114603055       -3.7880648669       -9.5957735855
 C       -10.0193332623       -4.0588891550       -8.3138680191
 C       -10.3966718010       -4.5889798376       -6.9113550504
 O       -10.2369934450       -4.0616826466       -5.8464888633
 C       -11.1837632843       -5.9695872058       -6.9786498290
 C       -11.0675087279       -6.8585855027       -5.7491939333
 C        -9.6493293165       -7.2365064531       -5.3929242469
 O        -8.7762495384       -7.0662270140       -6.2029479060
 C        -9.2695284488       -8.1661662677       -4.1973174302
 C        -8.1263317473       -7.3532298567       -3.5563451932
 O        -6.9810441807       -7.5790262926       -3.7102192266
 C        -8.5014394952       -6.3328374067       -2.4967932307
 C        -7.2584934580       -5.5631505697       -2.1342476349
 C        -7.1165213011       -4.2192927317       -2.8429649478
 O        -7.9856301585       -3.8527333608       -3.5797428538
 C        -5.6384311250       -3.4613686792       -2.6790992077
 C        -6.0048641862       -1.9159745025       -2.5253578952
 O        -6.7065878686       -1.4349006336       -3.4025603995
 C        -5.4580814395       -1.0072975992       -1.3595709327
 C        -6.6345600082       -0.4883084704       -0.5017603132
 C        -7.6642068204       -1.4992525193       -0.0049140958
 O        -7.6946477299       -2.6497623116       -0.3796182514
 C        -8.9432773568       -1.0350640622        0.9276281154
 C        -9.9342056855       -0.1986120018        0.0872147010
 O        -9.5990792856        0.9450994550       -0.1597539582
 C       -11.3584538720       -0.7713435781       -0.2666920659
 C       -11.8136052762       -0.3165884991       -1.7123000046
 C       -10.6672567221       -0.4334406337       -2.8098401190
 O       -10.4243575464       -1.5130432780       -3.1971226407
 C       -10.3245576517        0.9160720449       -3.5181947144
 C       -10.5417833382        0.5315498889       -5.1172392487
 O        -9.9574724918       -0.4221757741       -5.5267284043
 C       -11.6699603113        1.2045366540       -6.0064143363
 C       -11.0472694143        1.7918638717       -7.2770785212
 C       -10.0098071378        2.9668955964       -7.0626480787
 O        -9.7098237479        3.3499159361       -5.9547204556
 C        -9.4974217009        3.7362004523       -8.3479773404
 C        -8.5551153364        2.8895662873       -9.1727563812
 O        -8.0712417205        1.8406214552       -8.7221460244
 C        -8.1508961889        3.4060320770      -10.5591303775
 C       -10.6843049540        4.1835767424       -9.2221942070
 C        -8.6980417531        4.9423089638       -7.6573012389
 C       -11.1626216824        2.1900682646       -3.2629975499
 C        -8.7864164596        1.1151256835       -3.3678977878
 C        -9.5035478793       -2.3852517794        1.4676289949
 C        -8.4500237867       -0.0824806215        2.0895768118
 C        -4.8414645342       -4.0249380516       -1.4508234007
 C        -4.7046619890       -3.5438795263       -3.9718788148
 C       -10.3221641465       -8.4590851421       -3.1966638241
 C        -8.7417482359       -9.5445723904       -4.8269282446
 C       -10.2929067803       -2.5513178005       -8.5240101615
 C       -10.7415966505       -4.8828909850       -9.4872420507
 C        -5.0155545365       -0.0812552042       -6.5502955362
 C        -5.7973832570       -1.0086825839       -8.8173801329
 C        -0.5631690060       -4.3799192507       -8.5673887515
 C         1.5974627946       -2.9292308359       -8.6646540429
 C         2.2218216306       -3.1310716492      -16.6534363546
 C         3.4317020398       -4.9979825584      -15.3023997889
 C         7.0190024345       -3.1185055016      -18.0848716594
 C         8.9260197746       -1.4066696346      -18.0178983690
 C         5.1656644316       -0.5889727520      -24.2068522483
 C         6.5973743786        1.5600319408      -24.7481332127
 C         2.5195534196        4.7856117582      -18.3283696615
 C         0.9365039733        4.3255409757      -20.0949005767
 H         3.3031275682        7.4554909692      -18.6298705326
 H         3.1106420313        8.2326682637      -20.2209020516
 H         4.4953002367        7.3606894096      -19.8397216275
 H         3.0086397840        4.5201416819      -22.2618677804
 H         2.2677513445        2.9791911989      -22.1160156840
 H         5.2553110362        3.4347663868      -22.4182952540
 H         4.0075919026        3.3611421134      -23.8070806459
 H         8.5074969173       -1.1378957951      -23.1531156677
 H         7.0687056904       -1.9869086259      -22.5967206942
 H         8.8090318651       -0.3621787894      -20.6798715087
 H         9.1161612261       -2.0183937318      -20.8541997716
 H         6.2676682894        0.1860409040      -15.7580321710
 H         7.0235883864       -1.3956180604      -15.6271585248
 H         4.0326938626       -1.1600990364      -16.5697960967
 H         4.4349943234       -0.6972362711      -14.9352222413
 H         2.2217723045       -4.8687158055      -13.0575349711
 H         0.7465924596       -4.2943487763      -13.6404526882
 H         0.9067785112       -2.1733345167      -11.9503835188
 H         2.4418859027       -2.8876364481      -11.4221293191
 H        -0.6004159723       -0.4706059574       -8.0577785364
 H        -1.0676219461       -1.8554014166       -7.3318468924
 H        -2.8926634735       -1.1737857752       -9.4835115964
 H        -2.7850703943        0.0442882247       -8.0793973818
 H        -5.3559224580       -4.3743915101       -6.9009119855
 H        -5.5794225246       -3.7527446405       -8.3719713630
 H        -7.7807100945       -4.5947381665       -6.3618086822
 H        -7.1431806554       -5.7109766503       -7.4814239958
 H       -10.7144550322       -6.5899089472       -7.7687391471
 H       -12.1949255183       -5.8836742961       -7.3045468969
 H       -11.7013396915       -7.6872689087       -5.8904817222
 H       -11.4959061052       -6.4068773450       -4.8247735845
 H        -8.7299847536       -6.9512368581       -1.6077748173
 H        -9.3960692095       -5.7925020390       -2.7143896636
 H        -6.4185651963       -6.2427443967       -2.2923657879
 H        -7.1893840241       -5.5575899692       -1.0593584220
 H        -4.8649478606       -0.2085885377       -1.8045709810
 H        -4.9194049647       -1.4747557171       -0.6643343263
 H        -7.2403828871        0.2552739991       -0.9720093900
 H        -6.2381273958        0.0010032339        0.3630357856
 H       -12.1839886718       -0.4847655068        0.4321313454
 H       -11.3487932192       -1.8410266899       -0.3179361468
 H       -12.1966133210        0.6831774143       -1.5431446890
 H       -12.6214198496       -0.9296870719       -2.0587668126
 H       -12.3042856047        1.9293052126       -5.5404281792
 H       -12.2274494621        0.3577168414       -6.3151707740
 H       -11.8324682319        2.0559195107       -7.9391023481
 H       -10.7094843262        0.9583893519       -7.8861834236
 H        -7.1520782384        3.7016210545      -10.6475685942
 H        -8.7406096138        4.1870915397      -10.9292206355
 H        -8.2933301653        2.5419207544      -11.2586171125
 H       -11.2916640781        5.0032163741       -8.8502701398
 H       -11.3243524708        3.4107849458       -9.5974377632
 H       -10.4134632904        4.6493125340      -10.1623190661
 H        -7.8558242861        4.5281099538       -7.1286126350
 H        -9.3712486258        5.5227839722       -7.0276729060
 H        -8.3600074600        5.6977344883       -8.4004834236
 H       -10.6478507799        3.0226525912       -3.8134367775
 H       -11.3107667357        2.5142210031       -2.2528546472
 H       -12.1660401546        2.1653430826       -3.7484503170
 H        -8.4362838634        1.9637063719       -3.8328268044
 H        -8.1988884337        0.2852765226       -3.8703480311
 H        -8.3653567831        1.1519322370       -2.3425949359
 H       -10.3336765705       -2.1535694142        2.1754656551
 H        -8.7695813593       -3.1065520495        1.8009552162
 H        -9.9808096674       -2.9026600487        0.6698475124
 H        -7.6738580325       -0.6075662510        2.7290651880
 H        -9.1864867654        0.2301385058        2.8412270014
 H        -8.1036065392        0.8706961963        1.6673614480
 H        -4.5401978894       -5.0185018467       -1.4899418172
 H        -5.5702491504       -3.9126256048       -0.6058578595
 H        -3.9694692130       -3.3307193128       -1.3571080868
 H        -3.6666822862       -3.2842216120       -3.5646952112
 H        -4.9213350108       -2.6683037080       -4.5869919046
 H        -4.8394233144       -4.4397247531       -4.5511703287
 H       -11.1967607965       -7.8152330751       -3.1831143061
 H       -10.0366152354       -8.4595792074       -2.1171671682
 H       -10.6949847286       -9.4521020171       -3.3215281797
 H        -7.8663129836       -9.4126170153       -5.4294091046
 H        -9.5644338538       -9.9218160248       -5.4257623755
 H        -8.6283276152      -10.2768163414       -4.0237582738
 H        -9.7096767153       -1.9857389601       -9.2992582349
 H       -10.2052846204       -1.9349299346       -7.6202295286
 H       -11.2929050151       -2.4982532634       -9.0049970227
 H       -11.7926087476       -5.1199197232       -9.2110406036
 H       -10.2110161309       -5.8159619871       -9.7325723196
 H       -10.7357476915       -4.2452886455      -10.3206764461
 H        -5.5622241830       -0.0616388557       -5.6208001199
 H        -5.4283576115        0.7537488022       -7.0883760159
 H        -4.0454075396        0.1650751883       -6.2335052250
 H        -5.1674503334       -0.5506373839       -9.5563167203
 H        -6.6417530692       -0.3746532910       -8.6584954165
 H        -6.1954637514       -1.9571413546       -9.2785111864
 H        -1.1891740025       -3.9767830941       -7.6960369894
 H         0.1294690981       -5.0830672113       -8.1454118887
 H        -1.1675099609       -4.9193170997       -9.2160227089
 H         1.2797516097       -2.8713788870       -7.6817354247
 H         2.1026563203       -1.9649910531       -8.8935427863
 H         2.3273231285       -3.6475588370       -8.6995348756
 H         2.5154721353       -3.3797779998      -17.6608671379
 H         2.2843289670       -1.9931475117      -16.6899368332
 H         1.2594888708       -3.3060684673      -16.2690256785
 H         4.2564693850       -5.2708551941      -14.6607039947
 H         3.7039190176       -5.2923990737      -16.3063005460
 H         2.6237196432       -5.6608865259      -15.0919699756
 H         7.4135437512       -3.8916114185      -18.7973201025
 H         5.9796582723       -3.3013202815      -18.2123735223
 H         7.3618910776       -3.5451020046      -17.1117168950
 H         9.6364307080       -2.0771883743      -18.4795078825
 H         9.0845320079       -1.6907715355      -16.9159419565
 H         9.2041659612       -0.3891759827      -18.2105787246
 H         4.7589967617       -1.2498706173      -23.4273640509
 H         5.8774433302       -1.1428151841      -24.6867568713
 H         4.4507882332       -0.4979218418      -25.0235676896
 H         5.7403517606        1.8987802166      -25.3344467544
 H         7.3266027439        0.9619020296      -25.2482180944
 H         7.1795307651        2.3525521820      -24.4298172290
 H         1.7444258778        5.3953381354      -17.9198309131
 H         3.5414075671        5.0907811195      -18.0905931159
 H         2.3924493062        3.7898770107      -17.7907871368
 H         0.2049099001        4.9725122919      -19.5896359346
 H         0.8205862950        3.3110687310      -19.9274363652
 H         0.6935039920        4.5156045112      -21.1161187690
 Na       -8.7668602514       -2.3076752760       -4.8657803613
 Na        5.3004716467        1.0103198330      -20.2431229643
