232

 C         3.1916916583        7.2273741046      -20.1658614656
 C         2.3214195008        6.0513263449      -20.6427048481
 O         1.5988397648        6.2202591583      -21.5800976638
 C         2.5809817355        4.3999688755      -20.0716213940
 C         3.8006178635        3.7424661905      -20.8558744818
 O         4.6802215647        3.2041558753      -20.2331135088
 C         3.5428729278        3.7937927824      -22.3824318409
 C         4.6800561826        3.3670668119      -23.3425640501
 C         4.9939615877        1.9838963651      -22.9668322100
 O         4.3162182618        1.3305258169      -22.2209732165
 C         6.3022167183        1.0623278037      -23.7549679338
 C         7.1498150299        0.4949406256      -22.6352185899
 O         7.4725390727        1.2856894253      -21.7198872468
 C         7.5919708257       -0.9390905732      -22.6136160200
 C         8.1109475651       -1.5948984010      -21.2667080212
 C         7.0610179189       -1.2923557932      -20.1750085467
 O         5.9025906792       -1.1209162637      -20.5027463303
 C         7.3162209031       -1.5533719338      -18.6774203908
 C         6.3585165667       -0.6765339950      -17.8265147112
 O         5.7149478038        0.3114634270      -18.1463463386
 C         6.1198988591       -1.1533476117      -16.4158327328
 C         4.6223847995       -1.4182601123      -15.8646873427
 C         4.4059496834       -2.8949941428      -15.5737470127
 O         5.2431044402       -3.7285211109      -15.7099491438
 C         2.9620225618       -3.2761709333      -15.2672196990
 C         2.4271547574       -2.4059000735      -14.0703695006
 O         2.0900106487       -1.2585357381      -14.3143493956
 C         2.0811657687       -3.0334415351      -12.6823878778
 C         0.8155440451       -2.3485546411      -11.9882700213
 C         0.1929534769       -3.5076702610      -11.1240098063
 O         0.1619443244       -4.6331946266      -11.6013246626
 C        -0.0346820878       -3.1394692455       -9.6558882796
 C        -1.0888908242       -1.9664518106       -9.5205774317
 O        -1.4633886887       -1.4777015184      -10.5999516620
 C        -1.4527901941       -1.2423400590       -8.1977506528
 C        -2.9375841568       -0.6759536832       -8.2665068871
 C        -3.9291796069       -1.7438441923       -7.5913164108
 O        -3.5007280694       -2.8397756861       -7.2527179462
 C        -5.4225879265       -1.3604401686       -7.5743971508
 C        -6.3571695516       -2.4935003332       -7.1163987553
 O        -7.4105570498       -2.1404107630       -6.5690622618
 C        -6.0889387639       -4.0225846966       -7.5054948991
 C        -7.4283627508       -4.7981861102       -7.4302370666
 C        -8.4575193459       -4.1994795440       -8.4236465978
 O        -8.1052875898       -3.8325052876       -9.5411409097
 C        -9.9915718179       -4.0203981002       -7.9720044104
 C       -10.3720077123       -4.5683776538       -6.4179345671
 O       -10.0801943909       -3.9627269986       -5.4376332021
 C       -11.4326778387       -5.6982859182       -6.2348053115
 C       -11.1134682492       -6.5246237697       -4.9111915804
 C        -9.8875623701       -7.3651984476       -5.2434358456
 O        -9.3843118461       -7.2905596504       -6.3406606522
 C        -9.2962631335       -8.4010178561       -4.1528152989
 C        -7.9457224563       -8.0041793242       -3.3851515586
 O        -6.8619360523       -8.5166089704       -3.5953993971
 C        -8.0891650628       -6.8107693757       -2.3309169430
 C        -6.7255219156       -6.0395524781       -2.0968049190
 C        -6.8104867834       -4.7660355807       -2.9162147114
 O        -7.7875690793       -4.5383354489       -3.6044211842
 C        -5.6347640289       -3.7319967560       -2.6612446776
 C        -6.3049589531       -2.2887576682       -2.3769089168
 O        -6.9011940572       -1.8032470566       -3.3385133857
 C        -5.5803919833       -1.3559553906       -1.3789735808
 C        -6.5545958250       -0.4313096303       -0.6047353150
 C        -7.3736128533       -1.3219999441        0.4009722051
 O        -7.2725441530       -2.5383959405        0.3954869906
 C        -8.6000553554       -0.6822513679        1.2045379059
 C        -9.6010735839       -0.0701243535        0.2482810111
 O        -9.2771911880        0.9012727260       -0.4075253955
 C       -10.8721566955       -0.7909830018       -0.1511669244
 C       -11.4681429544       -0.2144303718       -1.4702585597
 C       -10.5142661859       -0.3065384560       -2.6229782148
 O        -9.9547373989       -1.2950786565       -2.8879021836
 C       -10.5942955207        0.9036055369       -3.4919572006
 C       -10.7033006257        0.4507237830       -5.0575462522
 O       -10.1480276046       -0.5986649624       -5.3478581273
 C       -11.6066998275        1.0744037719       -6.2173574163
 C       -10.8365734545        1.6392322780       -7.5002386074
 C        -9.9310966545        2.8819194104       -7.2031271374
 O       -10.0341044463        3.3155376738       -6.0979086996
 C        -9.0758068680        3.5700671163       -8.3512061985
 C        -8.2226928279        2.3048538196       -8.8689330357
 O        -7.8238704448        1.5843834560       -7.9267988251
 C        -8.0647263871        1.9960360641      -10.2696133481
 C       -10.0774978964        4.2609584656       -9.3095350870
 C        -7.9671429428        4.5756978395       -7.9232863013
 C       -11.8660985334        1.7874803240       -3.2683793990
 C        -9.2718140740        1.6898298351       -3.4011744547
 C        -9.0836387851       -1.7269761538        2.1441143049
 C        -7.9340394032        0.4974509210        1.9486078219
 C        -4.6764991773       -4.1666166937       -1.4891763609
 C        -4.7301453936       -3.6059497092       -3.9496962909
 C       -10.3671820193       -8.6557466805       -3.0793960978
 C        -8.8465310105       -9.7680478656       -4.7828837285
 C       -10.5347390189       -2.5265287086       -8.0440394651
 C       -10.8385290022       -4.8455083383       -8.9312726730
 C        -5.6316325244       -0.1246723417       -6.6369741091
 C        -5.9554140876       -1.0704716203       -8.9800006453
 C        -0.5635334093       -4.3164377360       -8.7815036080
 C         1.1671667604       -2.5868876392       -9.0065254276
 C         2.1031041492       -2.7826685907      -16.5928266006
 C         2.8578175570       -4.8378730097      -15.0832855441
 C         6.9674940648       -3.0882875033      -18.4996688806
 C         8.7646640756       -1.3349506988      -18.2329393072
 C         5.6791852917       -0.1216355326      -24.4910021978
 C         7.1996256308        2.0914084378      -24.4948279962
 C         2.8163832726        4.4057965553      -18.5294444211
 C         1.1818125299        3.7304842193      -20.3931084955
 H         3.7136615369        7.5378656663      -21.0661089746
 H         3.8609727211        7.0928472009      -19.3537183146
 H         2.6968217924        8.1250904837      -19.8831974438
 H         3.0709231212        4.7908394713      -22.4773289117
 H         2.6636335833        3.2378125411      -22.5424208391
 H         5.4716887218        4.1031333033      -23.3684682597
 H         4.3385119313        3.2853748784      -24.3536033109
 H         8.3143371655       -1.3466714005      -23.3907605424
 H         6.6838796375       -1.5352613305      -22.8334050102
 H         9.0319747937       -1.0548040423      -21.0465548742
 H         8.3740929111       -2.7069387444      -21.3141259326
 H         6.4650526018       -0.3093656425      -15.8785026633
 H         6.8342631585       -1.9219099155      -16.0776612668
 H         4.0321367213       -1.1213663242      -16.7231208981
 H         4.5225767069       -0.7487894906      -14.9832712296
 H         2.9748346405       -2.8469561359      -12.0673247724
 H         1.9709741874       -4.0971027757      -12.7303537801
 H         0.0969236406       -2.2852518267      -12.7669027183
 H         0.8867311937       -1.3844144543      -11.5317653733
 H        -0.7981130474       -0.3162673010       -8.0423767131
 H        -1.3358924571       -1.9618776495       -7.3479014878
 H        -3.1385636427       -0.6775153896       -9.3412784633
 H        -3.0947731868        0.4088899685       -7.9954226292
 H        -5.4033790247       -4.4270053165       -6.7060196638
 H        -5.5338568278       -4.1448856784       -8.4817466166
 H        -7.7103949780       -4.8321841742       -6.4486088727
 H        -7.3357720810       -5.7989572396       -7.6719427547
 H       -11.4226674045       -6.4510031494       -7.0552410955
 H       -12.3564024282       -5.1698720262       -6.1872973903
 H       -11.9059571805       -7.1807313378       -4.5625637128
 H       -10.9251488291       -5.9620339604       -3.9525889781
 H        -8.4196617876       -7.2915010727       -1.3462072442
 H        -8.9798748009       -6.2100988601       -2.6110039702
 H        -5.9512059821       -6.8000526585       -2.1565038371
 H        -6.4993657411       -5.7432172985       -0.9994203750
 H        -5.0374460899       -0.7008430661       -2.1953047699
 H        -4.9332551095       -1.7650999757       -0.6699888994
 H        -7.3288057712        0.1024519106       -1.1895364264
 H        -5.9554919835        0.3993180370       -0.0852415428
 H       -11.6766671664       -0.6042108079        0.5902991938
 H       -10.7924177620       -1.8724480192       -0.2153496903
 H       -11.7613176231        0.7914570053       -1.1122320491
 H       -12.4136700944       -0.7267788646       -1.8321323562
 H       -12.3329717371        1.8306853903       -5.8341689277
 H       -12.2352746435        0.2194819679       -6.5695134385
 H       -11.5983535704        1.7791648487       -8.3031931005
 H       -10.1937688528        0.7674669143       -7.8834055041
 H        -7.5670044272        1.0206457836      -10.3936301412
 H        -7.5687185182        2.7240175892      -10.9217528933
 H        -9.0901260934        1.8777902736      -10.7865923254
 H       -10.4944903902        5.1102111603       -8.7690257326
 H       -10.9619007134        3.7330030595       -9.6168869834
 H        -9.5780533976        4.6429359982      -10.1952895527
 H        -7.2210874875        4.1611703206       -7.2859690594
 H        -8.4467452435        5.2841598788       -7.2901601011
 H        -7.5398821006        4.9642224709       -8.8690389671
 H       -11.8792152853        2.6742710801       -3.9015430381
 H       -12.1068979616        2.2368638875       -2.3530945331
 H       -12.7293200497        1.2053699697       -3.5100364136
 H        -9.2569333153        2.4919405107       -4.0862586223
 H        -8.3994276772        1.0151982538       -3.6320637290
 H        -8.9024800093        2.0286616255       -2.4125054843
 H        -9.5667301431       -1.3819538472        3.0624134657
 H        -8.3357732067       -2.3620471360        2.5296734943
 H        -9.7962853214       -2.2965550344        1.6574716120
 H        -7.1196678828        0.2364097969        2.6620654107
 H        -8.7509246100        1.0472785631        2.3778434539
 H        -7.3514208310        1.1074510442        1.2612657025
 H        -4.4287777734       -5.1868959278       -1.4850645666
 H        -5.2066668366       -3.7312772002       -0.5876058468
 H        -3.7288014988       -3.5630214422       -1.5086145172
 H        -4.5478790230       -2.5109610509       -4.1905863739
 H        -5.1379070522       -4.1008395859       -4.7949069131
 H        -3.7714538695       -3.9543968789       -3.7256446704
 H       -10.7733042350       -7.7434043595       -2.6658736521
 H        -9.9545056549       -9.2503638063       -2.2568881119
 H       -11.1781460771       -9.1777074920       -3.4654461696
 H        -7.9331896660       -9.4980442249       -5.3138699612
 H        -9.4864101915      -10.2304139395       -5.5569597137
 H        -8.6266679788      -10.4720617111       -3.9276820453
 H       -10.0222792449       -2.0343733905       -8.8637396856
 H       -10.4360734127       -1.9096231671       -7.1801640193
 H       -11.6222537466       -2.5152549920       -8.1842716154
 H       -11.8727578089       -4.7671850647       -8.4953745722
 H       -10.4838701121       -5.9195888555       -9.0299373167
 H       -10.8595631572       -4.3862732632       -9.8981516388
 H        -6.5287714431       -0.2723709748       -6.0219940589
 H        -5.8312850632        0.7927631729       -7.1664767732
 H        -4.8694376759        0.1573804942       -5.9477256199
 H        -5.3039870107       -0.4315958052       -9.5811857911
 H        -6.9114438772       -0.5906981748       -8.9084168655
 H        -6.1036480761       -1.9678289435       -9.6474856990
 H        -0.4202219100       -3.9664208837       -7.6959467343
 H        -0.1987539695       -5.3269563395       -8.9233877900
 H        -1.6104972279       -4.3740012100       -8.9167161174
 H         1.0059049898       -2.3475644453       -7.9350376285
 H         1.4701452490       -1.5656032379       -9.5640074290
 H         1.9873711542       -3.2746129597       -9.0262960239
 H         1.2171534317       -2.1331103393      -16.3656355966
 H         1.6642894331       -3.7554814691      -16.9755420663
 H         2.7953566982       -2.3121452953      -17.2151311627
 H         3.5365926741       -5.3872625571      -14.4456008894
 H         3.0941697864       -5.3011162367      -16.0434614400
 H         1.8428486175       -5.1238342775      -14.8290796756
 H         7.0203477996       -3.6160879544      -19.4847546357
 H         5.9744455786       -3.2787739912      -18.1176152785
 H         7.6629238825       -3.6168971357      -17.8469055173
 H         9.4169121396       -1.9958172568      -18.7811792229
 H         8.7579240408       -1.4820639782      -17.1039772388
 H         9.0617031496       -0.3282793236      -18.4373052870
 H         4.8382504296       -0.7492258650      -24.0561048293
 H         6.3229021402       -0.9196970983      -24.7994132841
 H         5.1245112833        0.2835236033      -25.3861017617
 H         6.6488315159        2.5061658422      -25.3908366117
 H         7.8976047546        1.4373267969      -25.0295560110
 H         7.4619088193        2.8809427890      -23.8195938765
 H         2.1072241066        5.0183008823      -18.1010103785
 H         3.7346964179        4.8728508029      -18.2988473031
 H         2.7654649720        3.3497448318      -18.2310784170
 H         0.4844081182        4.1177903132      -19.5974267439
 H         1.2088803546        2.7152144675      -20.1361008677
 H         0.9418171231        3.8403300566      -21.4300843951
 Na       -8.6366888884       -2.4918590204       -4.6580396814
 Na        5.2320014423        0.9825829946      -20.2909971588
