232

 C         3.1209881259        7.0104414641      -20.1625917643
 C         2.2086512869        5.9244781075      -20.7335441084
 O         1.4139545845        6.2339574051      -21.5770313206
 C         2.4731213908        4.4198001045      -20.3040833011
 C         3.7126953614        3.8678585080      -21.0905421461
 O         4.8589361489        3.5390417869      -20.7467528978
 C         3.7407186537        3.8776782798      -22.6284967047
 C         4.9733898738        3.3615642546      -23.2121884686
 C         5.1855755623        1.8484711503      -23.1917753566
 O         4.3270275968        1.1534491593      -22.6175117366
 C         6.4714307575        1.2618435498      -23.8500740286
 C         7.1981671782        0.5391366465      -22.7125020320
 O         7.2620954835        1.2077337163      -21.7089063668
 C         7.6584850459       -0.8985331682      -22.7797655893
 C         8.1645422372       -1.3754583724      -21.3318200055
 C         6.9121370559       -1.3255981850      -20.2604038699
 O         5.7855424515       -1.0079569786      -20.5993706291
 C         7.2504563533       -1.6724553222      -18.7515099223
 C         6.3184384011       -0.8196811020      -17.7209534990
 O         5.7227383834        0.2486052044      -17.9342301898
 C         6.3387691903       -1.2210989515      -16.2019070332
 C         4.8286168212       -1.3147758503      -15.5785786900
 C         4.3500664693       -2.7170610283      -15.7776192034
 O         5.0644204058       -3.6132886135      -16.1196632666
 C         2.8273699880       -3.0513127332      -15.2987946468
 C         2.2558204097       -2.1728115911      -14.2695782698
 O         1.9903407610       -0.9947088237      -14.5138416891
 C         2.1376368999       -2.7475618518      -12.8007611843
 C         0.7180090845       -2.4147461900      -12.1584201630
 C         0.1432101270       -3.4680943680      -11.1031350261
 O        -0.0211049584       -4.6090521769      -11.4381868984
 C        -0.1167406484       -2.9787977081       -9.5558373671
 C        -1.2446029469       -1.8935548534       -9.6022861407
 O        -1.9546806151       -1.7049550690      -10.6096235688
 C        -1.5403520228       -1.2713917403       -8.2430329301
 C        -2.9028470899       -0.7046051823       -8.0198912060
 C        -4.0138542170       -1.7723029528       -7.6325827713
 O        -3.5842451854       -2.8175141537       -7.1021583825
 C        -5.4910853230       -1.4106645067       -7.7795405346
 C        -6.4794713239       -2.4519911396       -7.2477297543
 O        -7.3233832803       -2.0412243056       -6.4615015838
 C        -6.4246626956       -3.9761243465       -7.6698245112
 C        -7.6998195622       -4.7634051988       -7.2574944535
 C        -8.7554175494       -4.2599035733       -8.2460221194
 O        -8.3890875797       -3.6833699486       -9.2649370940
 C       -10.3075354024       -4.1885013556       -7.8201417265
 C       -10.4900385376       -4.7172957018       -6.3786688708
 O        -9.9765602019       -4.1729834859       -5.4408472831
 C       -11.4062103995       -5.8640608021       -6.1030938853
 C       -10.8764152105       -6.6487893290       -4.8864160979
 C        -9.6393211032       -7.5147961014       -5.0552046530
 O        -9.1196132560       -7.5400033409       -6.1533078822
 C        -9.3063266575       -8.6423426849       -3.9655808136
 C        -7.9908353048       -8.0792368501       -3.4165937064
 O        -6.8751723845       -8.4309026482       -3.7199317148
 C        -8.1501452126       -6.8511641331       -2.3050020724
 C        -6.8452901197       -6.0906428365       -2.0055696222
 C        -6.7771089252       -4.7891268973       -2.7974667929
 O        -7.7047709439       -4.4588896196       -3.5250070012
 C        -5.5121618891       -3.8448912397       -2.5510102848
 C        -5.9474076564       -2.3499889152       -2.1625009080
 O        -6.8989141279       -1.8369997334       -2.7199976872
 C        -5.2900031637       -1.4329799766       -1.1517732450
 C        -6.3239488663       -0.5968561342       -0.3750346993
 C        -7.2562380906       -1.3261338131        0.6012061840
 O        -7.1310823523       -2.5462028926        0.6227083045
 C        -8.3227633660       -0.5458902375        1.3737225014
 C        -9.3041122313        0.0567871372        0.2532568060
 O        -9.1509412236        1.1877933161       -0.1090722613
 C       -10.4684142887       -0.8957279879       -0.2466712489
 C       -11.4478386769       -0.4482732585       -1.3665453319
 C       -10.5797243746       -0.3313106537       -2.6645380788
 O        -9.7749530219       -1.2084048743       -2.8509569590
 C       -10.8331127098        0.8523483950       -3.7978965781
 C       -10.9154501443        0.2826887481       -5.1869358603
 O       -10.1458796421       -0.5438277309       -5.5639881747
 C       -11.7483664994        1.0314925106       -6.1939645246
 C       -10.7200417773        1.5490320132       -7.3538015003
 C        -9.9697778417        2.9002479046       -7.1266703962
 O       -10.0794622340        3.6390666098       -6.1977929094
 C        -8.9531374197        3.3262047794       -8.2931119875
 C        -8.1464313142        2.1147071723       -8.8314364494
 O        -7.6543444890        1.2829325395       -8.1420492268
 C        -8.1807176600        1.8275340014      -10.3393532616
 C        -9.7616753945        3.9134846427       -9.4224572011
 C        -8.0070013961        4.4249164267       -7.6357250239
 C       -12.0026482023        1.7983223032       -3.3540624560
 C        -9.4545659645        1.5335768120       -3.7521775021
 C        -9.0729547344       -1.5070910334        2.3090835808
 C        -7.6789156508        0.6455425227        2.0926363624
 C        -4.4991696227       -4.3098492202       -1.4533319943
 C        -4.8765967375       -3.8525782451       -3.9025101513
 C       -10.4679851815       -8.8014962547       -3.0061851590
 C        -9.0727791058       -9.9045808772       -4.9017999991
 C       -10.6272023691       -2.6264929111       -7.8816912708
 C       -11.2467737673       -4.8948463374       -8.8216556583
 C        -5.6041203921       -0.1703096378       -6.8636679681
 C        -5.8985028463       -1.0814246538       -9.2589911414
 C        -0.7612822386       -4.1047974747       -8.7548782707
 C         1.1504880422       -2.4719219421       -8.8437767091
 C         1.9098215456       -2.8703398619      -16.6225827143
 C         2.8020119234       -4.6027983086      -15.0070892177
 C         6.9332496524       -3.2221017120      -18.6657697771
 C         8.7618726883       -1.4087590898      -18.4221656990
 C         5.9221143072        0.3748218725      -24.9764974929
 C         7.5156491182        2.3401419379      -24.5189933768
 C         2.9556901649        4.4489358928      -18.7753138168
 C         1.2804123629        3.4232985914      -20.4302865922
 H         2.6944368330        7.9965042229      -20.3679025647
 H         4.1706172849        7.0052204701      -20.3819769769
 H         3.1473227456        7.0550924115      -19.0443710853
 H         3.5838556235        4.9371059758      -22.9381519248
 H         2.8855229231        3.4093273548      -23.1263282273
 H         5.8863654140        3.9093467727      -22.8416341182
 H         4.8752774080        3.7723637764      -24.1678117701
 H         8.4598586940       -1.0690894120      -23.5229928121
 H         6.9709142777       -1.5825041965      -23.0486395961
 H         8.6975161490       -0.5700400478      -20.9199104082
 H         8.7702405431       -2.3563981847      -21.3156915004
 H         6.9188556397       -0.3900601081      -15.7655020580
 H         6.9140744681       -2.1869661189      -15.9388580780
 H         4.1879215053       -0.6224274024      -16.1597948814
 H         4.9558011135       -1.0434982885      -14.5172403076
 H         2.8782899841       -2.1866545668      -12.1293878798
 H         2.2987142997       -3.8264383530      -12.8438393261
 H        -0.0567517268       -2.4704452634      -12.9183801194
 H         0.6941593195       -1.3842320420      -11.6802318658
 H        -0.8295904758       -0.5023219501       -8.1312461061
 H        -1.4863941578       -1.9255321985       -7.4190505929
 H        -3.2874978274       -0.1445233378       -8.8637118239
 H        -2.9049085372        0.1142400129       -7.2871454953
 H        -5.5104584560       -4.4002301540       -7.2771601132
 H        -6.4562256946       -4.0659395564       -8.7437460585
 H        -7.9804055738       -4.6299366285       -6.1857702485
 H        -7.4612724553       -5.8733304627       -7.4266416690
 H       -11.4769673061       -6.4945880500       -6.9731549217
 H       -12.3792511109       -5.5250767970       -5.7860405986
 H       -11.6485548971       -7.3779822398       -4.5476708580
 H       -10.7216927286       -6.0785409693       -4.0024697434
 H        -8.4646535980       -7.3125251843       -1.4034483772
 H        -8.8293590495       -6.0148172811       -2.5194534848
 H        -5.9178515079       -6.5870877910       -2.2505314977
 H        -6.7543556940       -6.0165820949       -0.8922076450
 H        -4.5040882703       -0.7388764579       -1.6919005679
 H        -4.6956048813       -2.0001113096       -0.4813785962
 H        -6.9155911913       -0.1802366320       -1.1425523757
 H        -5.9266172801        0.2343129569        0.1689020783
 H       -11.0103440130       -1.3553479611        0.5624426931
 H        -9.9161724644       -1.7230975188       -0.7610130315
 H       -11.8025703044        0.5247263126       -1.0284219497
 H       -12.3211666236       -1.1090966511       -1.5173613241
 H       -12.2266743403        1.8117803690       -5.6773634112
 H       -12.5304433909        0.4420836231       -6.5821023250
 H       -11.2901440024        1.6196304197       -8.2843746741
 H        -9.8903113258        0.8432882861       -7.4133054721
 H        -7.6909155859        0.9561233017      -10.7019042288
 H        -7.7908292653        2.5807707430      -10.9187315956
 H        -9.1799895965        1.8136464930      -10.8115004738
 H       -10.4853714777        4.7171009080       -9.2249677618
 H       -10.3663084588        3.0626050428       -9.8979072925
 H        -9.1006141267        4.2607433758      -10.1625112846
 H        -7.3194523553        4.0367129610       -6.9225664045
 H        -8.6999982211        5.1915243997       -7.2402012055
 H        -7.3583968252        4.7957994334       -8.4922478227
 H       -12.1237678864        2.7218068573       -3.9895206916
 H       -11.9904161481        2.0454592441       -2.2888940847
 H       -13.0463351036        1.3422223989       -3.4573806019
 H        -9.4103602049        2.3333601339       -4.4446867300
 H        -8.5725934538        0.9068211766       -4.0100361029
 H        -9.2985240003        2.1004645364       -2.8225102305
 H       -10.1173325256       -1.3053610096        2.6438744337
 H        -8.5937430055       -1.4026513093        3.3267146867
 H        -9.0063043468       -2.5180031725        1.9993510592
 H        -6.7993780592        0.3521514453        2.7004476925
 H        -8.4479355158        1.1618659664        2.6237534468
 H        -7.2254419697        1.2411280883        1.2548534199
 H        -4.0948142628       -5.2653840787       -1.7074567464
 H        -4.9743026148       -4.3276195165       -0.4379693631
 H        -3.6684640436       -3.6338088594       -1.4513980720
 H        -4.0243378545       -3.1531091927       -4.0379672773
 H        -5.6838258084       -3.6928363781       -4.6645392397
 H        -4.3663101861       -4.7963693655       -4.0509010048
 H       -10.8053820619       -7.8807919893       -2.4440691883
 H       -10.2437273741       -9.5628124458       -2.1987582035
 H       -11.2354817222       -9.2466155723       -3.6285840016
 H        -8.5440000698       -9.6594570823       -5.7869843660
 H       -10.0430570917      -10.2758534867       -5.1669120947
 H        -8.4514180485      -10.6315401994       -4.3860213767
 H       -10.8931293991       -2.3364465987       -8.9073330243
 H        -9.7429135803       -2.0565754091       -7.6100400462
 H       -11.3073284433       -2.3061484676       -7.0562798692
 H       -12.2629502648       -4.7408692644       -8.5789349555
 H       -11.0508407040       -5.9709781325       -8.7889241753
 H       -11.0638508828       -4.4824550380       -9.7667252055
 H        -6.6760583434       -0.0808698039       -6.7047834869
 H        -5.1496083485        0.7812648348       -7.0096133152
 H        -5.3302191165       -0.4593282801       -5.8200313483
 H        -5.3738694569       -0.1499238829       -9.5796667329
 H        -6.8909458942       -0.7985679285       -9.3354444088
 H        -5.7907271924       -1.9263892424       -9.9698586709
 H        -1.4475316770       -3.8355717979       -7.8758275670
 H        -0.0382755230       -4.7432548119       -8.2614523001
 H        -1.2894168728       -4.6320741244       -9.4555644617
 H         0.8379039971       -2.3699962684       -7.8612812196
 H         1.4927512298       -1.4561432660       -9.1077994355
 H         1.8642964706       -3.1931440545       -8.8051069257
 H         2.0445722752       -1.8497531321      -16.9190684637
 H         0.8366620910       -3.2475053852      -16.4102124655
 H         2.4547624939       -3.3056574915      -17.4750069842
 H         3.5442794296       -4.9016859405      -14.2838403920
 H         3.0905392988       -5.2639779528      -15.8310899385
 H         1.8260636678       -4.9091972964      -14.6429545052
 H         7.1317003651       -3.6433802409      -19.6747463118
 H         5.9649010981       -3.4367130250      -18.2215317223
 H         7.6370641760       -3.7250328361      -17.9029725438
 H         9.2967956678       -1.9871691679      -19.1755737937
 H         8.9455029818       -1.7637107233      -17.4146341889
 H         8.9922573950       -0.3514086362      -18.4010608095
 H         5.3853191055       -0.5538347774      -24.6926431008
 H         6.6416999280       -0.1051572254      -25.5172624648
 H         5.2065817001        0.8954214244      -25.5376343407
 H         6.9277898361        3.0112344188      -25.1835226400
 H         8.2487591324        1.7377621109      -24.9910816512
 H         7.7597639716        3.0027851827      -23.7677931987
 H         2.3011791470        5.1079657176      -18.2028435601
 H         3.9865817068        4.9111220166      -18.7645732254
 H         3.1105207469        3.3952955877      -18.4643040605
 H         0.6239951411        3.6525003011      -19.5710341603
 H         1.5773423465        2.3873074426      -20.3180533868
 H         0.8399550318        3.5942727109      -21.3852645370
 Na       -8.6066196458       -2.2243471926       -4.5157407985
 Na        5.2633020282        1.3968884005      -20.1370448164
