232

 C         3.0464246742        7.0161879694      -20.2076142767
 C         2.2199798257        5.9592213669      -20.7961075321
 O         1.3324840686        6.1404797901      -21.6205864256
 C         2.6153198388        4.3890100500      -20.3592708410
 C         3.7758492596        3.9232286042      -21.1758640759
 O         4.8136545693        3.6936353927      -20.5712830967
 C         3.6661013807        3.9650445831      -22.8261465598
 C         5.0138565283        3.4743159678      -23.3843205885
 C         5.1869558071        1.9797151445      -23.2728274378
 O         4.4162816108        1.2148732443      -22.7964513969
 C         6.4480264716        1.2992592503      -23.9394681678
 C         7.1292793796        0.5502533475      -22.7283761613
 O         7.2244951006        1.2503323750      -21.6896639119
 C         7.7501066590       -0.8143854025      -22.6810915898
 C         7.9724027115       -1.3387529216      -21.2552479485
 C         6.8558332357       -1.2074911843      -20.2598924085
 O         5.7342969730       -1.0663896377      -20.6471870236
 C         7.2468991883       -1.6899133321      -18.7504099546
 C         6.3542371852       -0.7707853015      -17.6631149997
 O         5.7178620969        0.1473431255      -18.1021840886
 C         6.3515237507       -1.2679980524      -16.2066474804
 C         4.9097964942       -1.2872777471      -15.5246499911
 C         4.2931228461       -2.7659155715      -15.7686558399
 O         4.9849682445       -3.6275418800      -16.2859772463
 C         2.8279106542       -3.0731439369      -15.3377509685
 C         2.2474935944       -2.1035973357      -14.2142580965
 O         1.9712558369       -0.9681933246      -14.5042187825
 C         1.9348618651       -2.7055055062      -12.7527891456
 C         0.5884279681       -2.2346435589      -12.1781582889
 C         0.2449567664       -3.3617229719      -11.1794034938
 O         0.1010818065       -4.5373801911      -11.5111928483
 C        -0.1679433824       -3.0243490699       -9.5977640404
 C        -1.2832582287       -1.9423203559       -9.5647988344
 O        -2.0244371795       -1.8234313049      -10.5087983931
 C        -1.5003553224       -1.1844448788       -8.2312702305
 C        -2.9233607060       -0.7549328793       -8.1163488224
 C        -3.9925644113       -1.8624133147       -7.6679387641
 O        -3.6353612951       -2.8603857833       -7.1563712775
 C        -5.4706543526       -1.3952446234       -7.7270987872
 C        -6.4542770634       -2.4577306658       -7.1550021262
 O        -7.3503865364       -2.1047244267       -6.3479347420
 C        -6.3962735250       -3.9135734951       -7.6235743664
 C        -7.7462912292       -4.6597477783       -7.3168895935
 C        -8.8199669919       -4.1994298068       -8.2714976509
 O        -8.5472097770       -3.6293326476       -9.3190875689
 C       -10.3503083089       -4.1999171812       -7.7765966780
 C       -10.4836637816       -4.7192768967       -6.3018052085
 O        -9.9457069169       -4.1559520287       -5.3578320428
 C       -11.2943842914       -6.0441444738       -6.0813715450
 C       -11.0212779609       -6.7140105742       -4.7204869638
 C        -9.7565742625       -7.5974590402       -5.1104819174
 O        -9.0153631078       -7.4146077383       -6.0393578842
 C        -9.3304589372       -8.6478985863       -4.0241493813
 C        -7.9791210260       -8.0339099944       -3.3689136461
 O        -6.8825721412       -8.3477259562       -3.7746268360
 C        -8.2661526481       -6.9027575185       -2.4391523587
 C        -6.9100142656       -6.1850892106       -2.0563900279
 C        -6.8301418056       -4.7293832542       -2.6462445576
 O        -7.7032272024       -4.3834817393       -3.4158108994
 C        -5.5293188224       -3.8416291045       -2.4916477662
 C        -6.0056743061       -2.3991492061       -2.1038100370
 O        -6.9262501385       -1.9251848586       -2.8025415268
 C        -5.3147873767       -1.6009954674       -0.9621122198
 C        -6.2101018756       -0.5469493754       -0.3054924978
 C        -7.2103987793       -1.4054998672        0.5578628811
 O        -7.1325727034       -2.6137493499        0.7175972141
 C        -8.2595952206       -0.5055253373        1.3936131084
 C        -9.3296181318        0.0494948977        0.3658149489
 O        -9.1667979350        1.1700242279       -0.0960712262
 C       -10.3015974835       -0.9264800945       -0.1921320631
 C       -11.1668496366       -0.3394488750       -1.2977166019
 C       -10.5741002855       -0.3260260281       -2.7485293985
 O        -9.8004651044       -1.1930647083       -3.0266104959
 C       -10.8243575421        0.8377305819       -3.6413806411
 C       -10.9220949785        0.3733045243       -5.1874570806
 O       -10.2032433605       -0.6103426109       -5.4908818781
 C       -11.7445678530        1.1291650895       -6.3397278952
 C       -10.7406457554        1.4783314199       -7.4475156003
 C        -9.9663039255        2.8533688183       -7.1811676835
 O       -10.2644329467        3.5544137885       -6.2315137280
 C        -8.9144613371        3.2767256662       -8.3042541405
 C        -8.2062067627        2.0797314039       -8.9056587115
 O        -7.6271728697        1.1841156056       -8.1918083196
 C        -8.1819278592        1.8681476308      -10.4114519882
 C        -9.8009213088        3.9647441334       -9.3922652089
 C        -7.9842750829        4.4057922445       -7.7006382671
 C       -12.0278910680        1.7032818601       -3.2993234166
 C        -9.3818803219        1.5950935346       -3.7091661576
 C        -8.9280894743       -1.5460219352        2.3897010345
 C        -7.6601773712        0.8075708282        2.0371091891
 C        -4.4805388864       -4.5001708321       -1.4917288467
 C        -4.8237029790       -3.6769754784       -3.8786345501
 C       -10.3776825091       -8.8588768034       -2.9828703150
 C        -8.9784357910      -10.0136312205       -4.6998973318
 C       -10.6498676209       -2.6595362212       -7.9237856688
 C       -11.4246844916       -4.9555752610       -8.7094134911
 C        -5.6631437189       -0.1414183473       -6.8242609112
 C        -5.6604742044       -1.1090482681       -9.2497484472
 C        -0.8397702309       -4.1400134224       -8.7701972737
 C         1.1531503495       -2.4377466525       -8.9650080442
 C         1.8922644781       -2.7716140153      -16.5477984349
 C         2.8355492077       -4.6087823170      -15.0578769148
 C         6.9546396589       -3.1620704231      -18.6008462977
 C         8.7039776092       -1.4659138140      -18.5048165282
 C         6.0968211002        0.3040750530      -25.1514348184
 C         7.4925097599        2.3848198302      -24.3505209623
 C         3.0243556664        4.2502025866      -18.7964149573
 C         1.3407456966        3.5116276319      -20.4477587539
 H         2.6144353813        7.9885185412      -20.1298700418
 H         4.0070238031        7.1081633641      -20.7024838245
 H         3.3133998155        6.8317077444      -19.2178381183
 H         3.2402043046        4.9099938121      -23.2296133945
 H         2.8640142829        3.2550959770      -22.9928179773
 H         5.7545289520        3.8927730714      -22.7557633186
 H         5.2776419592        3.9393644926      -24.3000799343
 H         8.7041759671       -0.9353233255      -23.1555825933
 H         7.1055454668       -1.6758000714      -23.1943547293
 H         8.7827767949       -0.7500833725      -20.8363365321
 H         8.2163029634       -2.4357915877      -21.2297159137
 H         7.0721481512       -0.6239575166      -15.6669832582
 H         6.7886352838       -2.3114825121      -16.1350272316
 H         4.3564809734       -0.4644873823      -16.0291810724
 H         5.1995956688       -1.0381881003      -14.4663419013
 H         2.6716861047       -2.1725067685      -12.1015088629
 H         2.0296532039       -3.8061311966      -12.7157761039
 H        -0.1959746395       -2.3317167070      -12.9154619768
 H         0.5592621673       -1.2701104386      -11.7084548620
 H        -0.8610659767       -0.3018180107       -8.2072253805
 H        -1.3671295196       -1.7814959779       -7.3438758665
 H        -3.2356203493       -0.3258568681       -9.0340333698
 H        -3.1068659464        0.1548126191       -7.5136250795
 H        -5.6108834673       -4.3764426420       -6.9952383867
 H        -6.1908706778       -4.0115483659       -8.7093313529
 H        -8.0250326502       -4.4412842220       -6.3396304639
 H        -7.5701332189       -5.6715262120       -7.3948005360
 H       -11.0629622668       -6.6928594812       -6.9142375724
 H       -12.2980097065       -5.7961987934       -6.0970260844
 H       -11.7915600686       -7.3648343635       -4.3198417977
 H       -10.7737930141       -6.0095528654       -3.8957798409
 H        -8.7494584581       -7.3226613293       -1.5247188992
 H        -8.8695146009       -6.0972477893       -2.8519921579
 H        -5.9779306585       -6.6706272779       -2.4056510876
 H        -6.8328913587       -6.2687087345       -0.9009028672
 H        -4.3767296389       -1.1046852846       -1.4378505622
 H        -4.9000012977       -2.2767976387       -0.2246136227
 H        -6.6009074305        0.1201687924       -1.0484557689
 H        -5.7604336198        0.0825114200        0.4822678290
 H       -11.0554515622       -1.0510885029        0.6299426736
 H        -9.9477164452       -1.9237629286       -0.4146820565
 H       -11.4851775854        0.6304016050       -0.8396010713
 H       -12.0904854644       -1.0317502366       -1.3054041304
 H       -12.3960041504        1.8733029805       -5.9339715161
 H       -12.3743574425        0.3606841099       -6.7046407107
 H       -11.3695068965        1.6524013795       -8.3441749724
 H       -10.0279697889        0.6015358900       -7.5184851670
 H        -7.6027667830        1.1053770955      -10.8565827653
 H        -7.9524879675        2.7577347341      -11.0206559829
 H        -9.1869848631        1.7067543948      -10.7923788625
 H       -10.1681770415        4.9354841413       -9.1050945608
 H       -10.5879242935        3.3712451332       -9.7402763812
 H        -9.1026250773        4.1928730603      -10.2347566965
 H        -7.5205361689        3.9888857578       -6.8179273563
 H        -8.6595311050        5.2229837399       -7.5458707770
 H        -7.1397404809        4.6489949602       -8.3158421709
 H       -11.9460608370        2.7020819346       -3.7101302530
 H       -12.1934575949        1.7308074747       -2.2619587833
 H       -13.0071841469        1.4112761282       -3.7143351404
 H        -9.3515545442        2.3216231329       -4.4731561711
 H        -8.6005765579        0.8785028052       -4.0098924869
 H        -9.0747707380        2.2489153121       -2.8736649801
 H        -9.9191393711       -1.3601527198        2.7765970194
 H        -8.3979289295       -1.4766762855        3.2877397739
 H        -8.8564202791       -2.5730098542        2.0694657731
 H        -6.5778813144        0.6462587692        2.3846788320
 H        -8.3588506336        1.0753434069        2.8777154690
 H        -7.6253882802        1.5905332147        1.2499968249
 H        -4.4335743992       -5.5428433803       -1.7122764252
 H        -4.8298575326       -4.4280868977       -0.4272726751
 H        -3.4095878109       -4.0961641188       -1.6148314340
 H        -3.6922654034       -3.5393524845       -3.7298874254
 H        -5.2727725700       -2.9300616613       -4.5133725127
 H        -4.8025305949       -4.6282032537       -4.3930028713
 H       -10.7427201261       -7.9798926807       -2.4709620444
 H        -9.9490660154       -9.4917025495       -2.1735620553
 H       -11.1445916041       -9.4584233280       -3.4325144348
 H        -8.2902266748       -9.9606047832       -5.5067193959
 H        -9.8985185714      -10.4491206704       -4.9846866233
 H        -8.4518149915      -10.6037720741       -3.9846914166
 H       -10.7157437167       -2.4679900406       -9.0199677642
 H        -9.8082565000       -2.0544945529       -7.5251502003
 H       -11.5146585685       -2.3074068902       -7.3075635842
 H       -12.3899652817       -4.9419824410       -8.1757100797
 H       -11.1689352975       -5.9975732159       -8.8279512414
 H       -11.5676228121       -4.4370608266       -9.6136895837
 H        -6.6945206842       -0.1760211514       -6.4901719726
 H        -5.4862908813        0.8461482926       -7.2713901795
 H        -5.1318238037       -0.1329767121       -5.9134244137
 H        -5.1853662475       -0.2009131901       -9.4983947613
 H        -6.6736460510       -0.9531070618       -9.6407928605
 H        -5.2986689308       -1.9888534327       -9.8053921132
 H        -1.3857740918       -3.7910394420       -7.9275381440
 H        -0.1345784312       -4.7627623798       -8.2803418068
 H        -1.5075998419       -4.7103185378       -9.4364147183
 H         1.1035228140       -2.2365369082       -7.9165923158
 H         1.4751038568       -1.4813583891       -9.4174012205
 H         1.8158117977       -3.2339671658       -9.1082875401
 H         2.3787547344       -1.9223989069      -17.1319943598
 H         0.8517122074       -2.6441454444      -16.0818038187
 H         1.9245185665       -3.5324404561      -17.3093985313
 H         3.7198682288       -4.9050577451      -14.4902940819
 H         2.8806155013       -5.2766617914      -15.8964161723
 H         1.9588394724       -4.8832304822      -14.4927129815
 H         7.4535001102       -3.6255642511      -19.5255571088
 H         5.8458744282       -3.3401976536      -18.5316294953
 H         7.3165672577       -3.5958746756      -17.7285944341
 H         9.2648499992       -2.1516936612      -19.1047182661
 H         8.8764111948       -1.6349215601      -17.3762101579
 H         8.8893261759       -0.4338905264      -18.6400260419
 H         5.4941066449       -0.4851825731      -24.7880765939
 H         6.8205188622       -0.3221276445      -25.6299002441
 H         5.3327636510        0.7894704863      -25.8488344221
 H         7.0053190777        3.1728267292      -24.8840017717
 H         8.3094947001        1.8141296398      -24.7922266656
 H         7.7287082150        2.8755187974      -23.4259469468
 H         2.1239224152        4.5227977951      -18.2871163186
 H         3.8023696274        4.9252331879      -18.5275880329
 H         3.4531791210        3.2267409304      -18.6204548662
 H         0.6794791176        3.7723098785      -19.5871973989
 H         1.5789436870        2.5167896357      -20.3904747800
 H         0.8669134469        3.7793768067      -21.4002392969
 Na       -8.5945222717       -2.2535035536       -4.4643572541
 Na        5.4067486237        1.4017056297      -20.1006375193
