232

 C         2.9978518350        7.0809481856      -20.2490040271
 C         2.2236974209        5.8878860285      -20.7310656117
 O         1.3645095936        5.9388303512      -21.5789271150
 C         2.5592947064        4.4829683988      -20.2969420713
 C         3.8089672131        4.0351840893      -21.2130538660
 O         4.8412904722        3.7172260569      -20.6646286654
 C         3.6783809835        3.9234517106      -22.6666307674
 C         5.0340973289        3.5165727661      -23.5191995748
 C         5.1579809486        1.9915291158      -23.5200135048
 O         4.3764095400        1.3673140254      -22.8421756077
 C         6.5291003412        1.3012551220      -23.9505523850
 C         7.0864768992        0.6117076688      -22.6244892046
 O         7.1983503220        1.3025415277      -21.5843120268
 C         7.6903073679       -0.7448108196      -22.6604074294
 C         8.0032929792       -1.3410805388      -21.3062040119
 C         6.8024086869       -1.2872392010      -20.2688658440
 O         5.6299743864       -1.0206805077      -20.5508692772
 C         7.1813135327       -1.6415270274      -18.8270781076
 C         6.2866923911       -0.8933627405      -17.7559634219
 O         5.6985476682        0.1199198283      -18.1164643663
 C         6.3496484575       -1.2571815841      -16.3053161988
 C         4.9882599674       -1.3978097683      -15.6402253791
 C         4.3026779579       -2.7130047578      -15.7910485046
 O         4.9111439458       -3.5734419594      -16.4199911340
 C         2.7409517727       -3.0388736035      -15.3203461283
 C         2.2314729578       -2.0977153713      -14.1182994184
 O         2.0209827997       -0.9554189445      -14.4415405634
 C         1.8643339461       -2.6396039096      -12.7580025133
 C         0.5239941594       -2.1876508771      -12.0729468468
 C         0.0491478029       -3.3330506925      -11.1694187055
 O         0.2521270187       -4.4549247473      -11.5121591821
 C        -0.2073873694       -3.0557610571       -9.6575742791
 C        -1.3503090142       -1.9273098856       -9.5311154152
 O        -2.1336336637       -1.8322043111      -10.4234996687
 C        -1.4968924089       -1.0885076704       -8.2997635105
 C        -2.9879461128       -0.7695116548       -8.1232567093
 C        -3.8934293925       -1.8014712142       -7.5000174153
 O        -3.6197002099       -2.9557247885       -7.2398521381
 C        -5.4428003007       -1.3705551462       -7.6549348851
 C        -6.4721750296       -2.4916027235       -7.1282890695
 O        -7.2757964496       -2.1866196325       -6.2942367735
 C        -6.3171934769       -3.9149440832       -7.5913957058
 C        -7.7173910168       -4.6362141946       -7.4173443089
 C        -8.9089194369       -4.1212162177       -8.3205356570
 O        -8.7874509891       -3.6958830501       -9.4273349958
 C       -10.4232132863       -4.1356113987       -7.6969485727
 C       -10.5291436008       -4.6699578369       -6.2884413143
 O       -10.0000983943       -4.1294150862       -5.3044579858
 C       -11.2888532759       -6.0157064438       -6.1515479915
 C       -10.9959014880       -6.8145582141       -4.8452721533
 C        -9.7645880572       -7.6636378240       -5.0549729100
 O        -9.0313563973       -7.2515884420       -5.9420275901
 C        -9.3097012893       -8.8046418780       -3.9639625932
 C        -7.9802214541       -7.9407753249       -3.3875419122
 O        -6.8995893557       -8.3328006298       -3.8202932178
 C        -8.2889163924       -6.8414935945       -2.4338553864
 C        -6.9185663450       -6.1369136162       -2.0752505307
 C        -6.8008461236       -4.7653410181       -2.6947397727
 O        -7.7325690312       -4.2626553541       -3.2742147270
 C        -5.5673888620       -3.9483971906       -2.4583274711
 C        -6.0469122437       -2.4855549113       -2.0636470074
 O        -6.8285083957       -1.8427179644       -2.7065099125
 C        -5.3063914690       -1.8314180302       -0.9295336624
 C        -6.0841408778       -0.6942478325       -0.2301586213
 C        -7.0533503779       -1.2947056891        0.7266797782
 O        -7.2052091393       -2.4916998052        0.7033342575
 C        -8.1661930803       -0.4564004328        1.4286230890
 C        -9.2708364132       -0.0508746046        0.3180931015
 O        -9.2375051285        1.0911614895       -0.1104794852
 C       -10.3067012561       -1.0380421138       -0.1515374685
 C       -11.1346283871       -0.2237294374       -1.2440592336
 C       -10.4778652847       -0.3071372008       -2.6544930687
 O        -9.8527371976       -1.3293118091       -2.9940047162
 C       -10.7537077364        0.9188773301       -3.6560664825
 C       -10.8412444959        0.3468618816       -5.2006111074
 O       -10.3303109508       -0.7086066304       -5.5755956666
 C       -11.5678296004        1.1638118138       -6.3339325084
 C       -10.7353071788        1.4481996579       -7.5220270220
 C       -10.0638819293        2.7895418758       -7.2926908358
 O       -10.3609557691        3.4182063112       -6.2973532621
 C        -9.0254932296        3.2733271501       -8.3496918986
 C        -8.2468920773        2.0511377918       -8.9757914300
 O        -7.7012039322        1.2341579773       -8.2411712975
 C        -8.1393917463        1.8789744737      -10.4922528445
 C        -9.9225181375        4.1271185121       -9.3619264498
 C        -7.9515652909        4.2070161135       -7.7470962257
 C       -11.9722005101        1.7820164676       -3.3434437509
 C        -9.5159548863        1.7890811297       -3.5975845312
 C        -8.7960527103       -1.3528232564        2.5260251765
 C        -7.5769619059        0.7036903264        2.1192143538
 C        -4.5610511852       -4.6241765993       -1.5101611887
 C        -4.8154743327       -3.5957280662       -3.8345619362
 C       -10.3139978723       -9.0157790051       -2.7885135334
 C        -8.8266588545      -10.1398307615       -4.5359502060
 C       -10.8165743310       -2.6946458251       -7.7661274708
 C       -11.3645386419       -4.9378464167       -8.6465004486
 C        -5.5748269504       -0.0139111937       -6.8519296674
 C        -5.6701504822       -1.1542287593       -9.1749732231
 C        -0.6679261697       -4.3221562919       -8.9881879381
 C         1.1889079222       -2.4522967695       -9.0668392499
 C         1.8798908498       -2.7073116003      -16.5897785026
 C         2.7654261583       -4.5271687967      -15.0061611596
 C         6.8368814212       -3.1573417032      -18.6134146749
 C         8.7566339280       -1.3888889764      -18.4262777802
 C         6.3341675768        0.3761329965      -25.1322346457
 C         7.5928053339        2.3812974762      -24.3690989883
 C         3.0373519776        4.1811552669      -18.8769578484
 C         1.3025715121        3.5664698825      -20.6517766489
 H         2.4445826464        7.9719396391      -20.2151946173
 H         3.8000244636        7.2579259182      -20.9668294622
 H         3.4545244291        7.1003754367      -19.2961986076
 H         3.2729934071        4.8782112537      -22.9678383770
 H         2.7756483604        3.2661052077      -22.7569539417
 H         5.8803858957        4.0268140825      -23.1932736719
 H         4.9392441201        3.9750793623      -24.5508007605
 H         8.6505664060       -0.7743746304      -23.2137002408
 H         7.0459779675       -1.5269092864      -23.2305099279
 H         8.9399282644       -0.8065960399      -20.8942614866
 H         8.1411368724       -2.3764621021      -21.3544368411
 H         6.8613229459       -0.4035269498      -15.8109647344
 H         6.9320516158       -2.1054459351      -16.1157493344
 H         4.4020805059       -0.5294363640      -15.9578509578
 H         5.3514257639       -1.2788498638      -14.6167967678
 H         2.6774277451       -2.3461371157      -12.1540044552
 H         1.8222641587       -3.7392999230      -12.8652376360
 H        -0.1871028564       -2.1327481286      -12.8968139337
 H         0.5426978341       -1.2918774182      -11.5494376202
 H        -0.9858997844       -0.1043779028       -8.5287879253
 H        -1.1066945125       -1.5563747317       -7.3531239064
 H        -3.4138021046       -0.5340707579       -9.1136512892
 H        -3.2371260922        0.1865664567       -7.7093500836
 H        -5.6155450041       -4.3582684727       -6.8345480345
 H        -5.9505476603       -3.9793185480       -8.6456547703
 H        -7.9783546624       -4.4517332322       -6.4135147279
 H        -7.5500106104       -5.6515266874       -7.5956189621
 H       -11.1535517546       -6.5607823478       -7.0678691656
 H       -12.3398627742       -5.7001586922       -5.9986639579
 H       -11.7730912795       -7.4829817555       -4.4354296065
 H       -10.7612726661       -6.0552573817       -4.0384404275
 H        -8.8381775011       -7.2439270307       -1.5220606592
 H        -8.8495680414       -6.0162058220       -2.9145107696
 H        -6.0189424380       -6.7868656864       -2.3557118995
 H        -6.7839176031       -5.9958942029       -0.9868225279
 H        -4.5116023045       -1.3570987832       -1.3770947572
 H        -4.7736731920       -2.5231546931       -0.1968068512
 H        -6.6020493939       -0.0078965153       -0.9861540161
 H        -5.4079471057       -0.0135165082        0.3359431255
 H       -10.9092333467       -1.3829153268        0.7212662215
 H        -9.9459633197       -1.9509582994       -0.6192498250
 H       -11.2538461477        0.8063709005       -0.8318149825
 H       -12.1311957548       -0.7183783425       -1.3437105686
 H       -12.0735946658        2.0316439338       -5.8718114551
 H       -12.4099017324        0.4794544699       -6.6176930462
 H       -11.4977512592        1.6814095990       -8.2965552041
 H       -10.0026187597        0.6340663022       -7.7697790785
 H        -7.4255542526        1.1141164113      -10.8515383579
 H        -7.9329908731        2.7870472043      -11.1627826004
 H        -9.0502582564        1.6093856196      -10.9717543802
 H       -10.2361572019        5.0193081426       -8.8419471591
 H       -10.7532766499        3.5732612901       -9.7334257967
 H        -9.2865055959        4.5413060907      -10.1830193929
 H        -7.5523611436        3.6001103749       -6.9304512864
 H        -8.3456094134        5.2082699154       -7.6086586172
 H        -7.1178429221        4.2501482481       -8.3499604209
 H       -11.9706225076        2.7191562101       -3.7774042114
 H       -12.0158451426        1.8596470585       -2.2609928626
 H       -12.8765955759        1.3906127355       -3.6764083634
 H        -9.3451342395        2.7438114504       -4.1504456954
 H        -8.7202317591        1.1477017375       -3.9011654431
 H        -9.3887763549        2.2099334913       -2.6085909074
 H        -9.5920768395       -0.8788849282        2.9787025635
 H        -8.1218465336       -1.5368060135        3.3267133990
 H        -9.1078290309       -2.3393584554        2.1680140747
 H        -6.5518498276        0.3709174049        2.3255944590
 H        -8.1073645445        0.8074527594        3.1147822368
 H        -7.5725363180        1.6547436182        1.5400916687
 H        -4.4622834918       -5.7204249676       -1.8427998326
 H        -4.9546937584       -4.6898395558       -0.5000894084
 H        -3.5398175880       -4.1708074836       -1.5493113578
 H        -3.7726585441       -3.7379015031       -3.7846876615
 H        -5.0824709134       -2.5964981393       -4.1472230074
 H        -5.1199665671       -4.2778365197       -4.6662256479
 H       -10.5115184434       -8.0754823354       -2.3702876872
 H        -9.8611144003       -9.5715634420       -2.0276667204
 H       -11.2235634952       -9.5597218902       -3.0716477712
 H        -7.9412646570      -10.0570043160       -5.1854285773
 H        -9.6755391796      -10.6042092322       -5.0129252061
 H        -8.4323062651      -10.7535277231       -3.7603674681
 H       -10.4826065566       -2.3229712530       -8.7457205856
 H       -10.3463228863       -2.0916104718       -6.9498440053
 H       -11.8939606947       -2.5689062316       -7.6391640229
 H       -12.3609585272       -5.0350007279       -8.1726081460
 H       -10.9814870780       -5.9211969353       -8.7896159561
 H       -11.5068758861       -4.3641072748       -9.6126250184
 H        -6.5016747333        0.3005692793       -6.3871535090
 H        -5.3171110695        0.7213714284       -7.6067192763
 H        -4.8312754586        0.1003906929       -6.0963419938
 H        -5.4851059256       -0.1860855597       -9.5769836884
 H        -6.7612744135       -1.3090455588       -9.4511264410
 H        -5.2392386529       -1.9818281643       -9.6639929789
 H        -1.0470522977       -4.1677210654       -8.0485350660
 H         0.1973182084       -4.9216581535       -8.7321435201
 H        -1.3999585272       -4.8975891252       -9.6245779604
 H         1.1637343263       -2.1243439732       -7.9709930122
 H         1.5031030678       -1.6041526944       -9.5905658542
 H         1.8902003682       -3.3804728337       -9.2102251410
 H         2.4038067435       -2.0070590605      -17.2835078056
 H         1.0049493271       -2.4292426065      -16.1111280491
 H         1.6423271971       -3.5704776353      -17.2709867801
 H         3.5975032727       -4.8659481453      -14.3612704955
 H         2.8761600913       -5.1333154709      -15.8819626992
 H         1.8191973768       -4.8561306143      -14.5891305069
 H         7.5673243228       -3.6821639566      -19.1948781989
 H         5.8016528021       -3.3710725561      -18.9068758408
 H         6.8383122602       -3.4550269974      -17.5750416809
 H         9.2568169082       -2.2465932990      -18.8873577850
 H         8.8567371258       -1.4590417479      -17.3575158841
 H         9.1003326943       -0.3802594175      -18.7180879139
 H         5.5432276807       -0.3339965031      -24.9096521153
 H         7.0798028423       -0.4147513798      -25.5376932152
 H         5.8290978606        0.9483197036      -25.9287996949
 H         7.0956616854        3.0423477758      -25.0086181148
 H         8.4986251159        1.8069674541      -24.6439614896
 H         7.7389598586        2.9986411271      -23.4187532602
 H         2.1731070073        4.2823795876      -18.2180758960
 H         3.8319637100        4.8337382473      -18.6485431771
 H         3.4890957411        3.2251893493      -18.8931850723
 H         0.4386301318        3.7437807901      -20.0494152633
 H         1.6864954123        2.5257150940      -20.5847729607
 H         1.0682290088        3.8140455113      -21.6960284133
 Na       -8.5572347157       -2.4156924478       -4.5087966783
 Na        5.5512394578        1.3786568264      -20.1485225737
