232

 C         2.9312974521        7.0178112676      -20.2226843691
 C         2.3005848606        5.8611748460      -20.8936640847
 O         1.3133282472        5.9819720505      -21.6046920408
 C         2.6922309019        4.3883195481      -20.4437332047
 C         3.8635043869        3.8911100871      -21.2729372266
 O         4.9865771121        3.5392823664      -20.9016554416
 C         3.7250494514        4.0412179405      -22.7893956875
 C         4.8494497323        3.5507639473      -23.6602359869
 C         5.2562673481        2.1093677682      -23.5268473497
 O         4.4819022336        1.3588693914      -22.9665961562
 C         6.7449809691        1.5402864267      -23.8929711380
 C         7.1807335322        0.7646958835      -22.5737796807
 O         7.4337519101        1.3833632215      -21.5710399782
 C         7.3773750928       -0.7106527062      -22.6436435847
 C         8.0118997663       -1.3457163227      -21.3475965098
 C         6.8194324898       -1.1970478861      -20.2557771754
 O         5.7367091193       -0.9682123311      -20.7047967967
 C         7.0709222892       -1.6984682666      -18.7299584125
 C         6.1797265010       -0.8482483065      -17.8113894022
 O         5.6178512984        0.1504489325      -18.2021040790
 C         6.2068507197       -1.1748393946      -16.3023897291
 C         4.7946698414       -1.3866117482      -15.5970958075
 C         4.1423490826       -2.7226637145      -15.8607062944
 O         4.6831383738       -3.5252478103      -16.5516701125
 C         2.7110413087       -2.9330923959      -15.4184312245
 C         2.3222157419       -1.8899463733      -14.2088313009
 O         2.2504439304       -0.6868364143      -14.3543609987
 C         1.9890238959       -2.6619199197      -12.7903980690
 C         0.6263307806       -2.2154687649      -12.2135943596
 C         0.2210243805       -3.3421166506      -11.2386721433
 O         0.2182767220       -4.4620888704      -11.7447503337
 C        -0.1387614637       -3.0417711861       -9.7728805926
 C        -1.3906789932       -2.0899281225       -9.6102244544
 O        -2.2618373913       -1.9711417981      -10.4391030744
 C        -1.4070911749       -1.2675105748       -8.3415729266
 C        -2.8076541489       -0.6327318958       -7.9511425673
 C        -3.8843445124       -1.7666817375       -7.6473504899
 O        -3.3972646876       -2.8170048984       -7.3479681152
 C        -5.4046334737       -1.4477340857       -7.6916413951
 C        -6.3817587890       -2.4302906045       -6.9995393201
 O        -7.0968059758       -2.0320185333       -6.0266210964
 C        -6.4993086693       -3.8005185093       -7.7597151155
 C        -7.7718208698       -4.6312958747       -7.5578749575
 C        -8.9438834312       -4.0647611763       -8.2970790743
 O        -8.8459055756       -3.7812286731       -9.4860460327
 C       -10.5205807309       -4.1400551147       -7.7026002559
 C       -10.6498615829       -4.7750564211       -6.2231848226
 O       -10.2000841631       -4.2535783285       -5.2462296954
 C       -11.4836098809       -6.1503680328       -5.9907562334
 C       -11.0596342380       -7.0705867711       -4.8823373596
 C        -9.6998457044       -7.7811017997       -4.9410601186
 O        -8.9306950626       -7.4956338414       -5.8052257268
 C        -9.1866886382       -8.7337787754       -3.8161736262
 C        -7.9129903736       -8.0459278910       -3.2957187413
 O        -6.7897985565       -8.1902377411       -3.7389087656
 C        -8.2083019603       -6.8608124248       -2.2789496923
 C        -6.9926919329       -6.0560321751       -1.9620166512
 C        -6.9569266096       -4.6810949271       -2.6059907492
 O        -7.8952752653       -4.2953544384       -3.2905879538
 C        -5.5259871285       -3.8684935056       -2.5614796254
 C        -5.8014588675       -2.4540736288       -1.9618245371
 O        -6.7459923581       -1.7840173326       -2.4026803189
 C        -5.1205463938       -1.8912146016       -0.6884841203
 C        -5.9183898059       -0.8224500741        0.0963555599
 C        -7.1162871284       -1.4019745682        0.8289259250
 O        -7.2999442178       -2.5944406848        0.7106344549
 C        -8.1555764723       -0.4951970941        1.5265500358
 C        -9.1410463283        0.1039326084        0.4586474877
 O        -8.9360994906        1.1905351968       -0.0444812293
 C       -10.2116725157       -0.8334370943       -0.1253825809
 C       -11.1245083607       -0.2419360633       -1.1351286818
 C       -10.4714496187       -0.2881473731       -2.5978631029
 O        -9.9747168968       -1.3102501448       -2.9620812823
 C       -10.6933024167        0.8288745583       -3.5492321789
 C       -10.6933256373        0.3591347927       -5.0793469106
 O       -10.1059616993       -0.6840161860       -5.3281841753
 C       -11.5903697718        0.9277867292       -6.1747455377
 C       -10.8216474156        1.3696970975       -7.4348639236
 C       -10.0884565933        2.7348346538       -7.3522163728
 O       -10.2723406309        3.4485554953       -6.3875318828
 C        -9.1879131060        3.2241056608       -8.5135149592
 C        -8.3856258223        2.0694641208       -9.2750169689
 O        -7.9817944592        1.2150852705       -8.4443849714
 C        -8.1673324306        2.0686310111      -10.7253166642
 C        -9.9222763000        4.2922048113       -9.4827687333
 C        -8.0360134972        3.9810330102       -7.7556302672
 C       -12.0845510736        1.6737023416       -3.3014115044
 C        -9.4503544637        1.8115986789       -3.4387716580
 C        -8.7591032396       -1.2047890102        2.6866774850
 C        -7.3392806469        0.7704945501        2.0114431420
 C        -4.5324159836       -4.6329463321       -1.6387820572
 C        -4.8738324569       -3.7851364901       -3.9549557524
 C       -10.3366895375       -9.0630979837       -2.7329201479
 C        -8.7769226393      -10.0354399486       -4.5735916691
 C       -11.2392983851       -2.7589216484       -7.4891119812
 C       -11.1752791081       -4.8890035154       -8.8670881048
 C        -5.5410645559       -0.1724026384       -6.8718084812
 C        -6.0872896442       -1.2722205361       -9.1006777504
 C        -0.4767872802       -4.4832475083       -9.0436677544
 C         1.0651639423       -2.4523580674       -8.9858274930
 C         1.8447653571       -2.6196348672      -16.6270412317
 C         2.5564805680       -4.3782867022      -14.9885737786
 C         6.8371156534       -3.2264038046      -18.7378582423
 C         8.5161289960       -1.4549915555      -18.3292723479
 C         6.3882696154        0.5785901561      -25.0140490496
 C         7.8028635498        2.6071839623      -24.2839611653
 C         2.8183622197        4.2616835659      -18.9781104749
 C         1.5599199301        3.3212479203      -20.8015026456
 H         2.2436910147        7.8336465274      -19.8425989909
 H         3.7149866624        7.6047258242      -20.7475887949
 H         3.3430659801        6.6937275134      -19.2466657610
 H         3.4986041305        5.1287305919      -23.0367827486
 H         2.8246650436        3.4818926626      -23.0208094216
 H         5.8458438421        4.1647422537      -23.4851150294
 H         4.5852228221        3.9248294873      -24.6429535250
 H         7.9294588646       -1.0443913153      -23.4740877793
 H         6.4032521922       -1.1908383052      -22.7220907974
 H         8.8761096943       -0.8594964449      -21.1205288151
 H         8.0716660555       -2.4882729532      -21.3395432248
 H         6.6327184145       -0.2738930358      -15.9197667689
 H         6.8698122090       -2.0656210209      -16.1038823297
 H         4.2419973393       -0.5551827604      -16.0036629736
 H         4.9707666672       -1.1588879400      -14.5600127461
 H         2.8153454837       -2.5255568583      -12.0400906428
 H         1.8468304424       -3.6982020766      -13.0027876401
 H        -0.0146554698       -2.0857630885      -13.1021902586
 H         0.7117952736       -1.2134336910      -11.6563818784
 H        -0.7323462765       -0.4275239293       -8.3857310639
 H        -1.0981969207       -1.9669611372       -7.5774918943
 H        -3.0660148649        0.2072863922       -8.6021539766
 H        -2.7646103765       -0.0027185055       -7.0259752572
 H        -5.6881356711       -4.3745180167       -7.3587736875
 H        -6.4406285012       -3.5561548420       -8.7959589382
 H        -7.9358195652       -4.6567474620       -6.4095999097
 H        -7.5695535983       -5.6683747865       -8.0742824926
 H       -11.5166387964       -6.6721095682       -6.9937931228
 H       -12.5130955431       -5.8910227413       -5.6351229717
 H       -11.7911040387       -7.8753780002       -4.7102020269
 H       -10.9440740543       -6.5067950631       -3.9584479158
 H        -8.4370485707       -7.2604429814       -1.3239211760
 H        -9.0030898026       -6.2164434791       -2.6638685851
 H        -6.3107970841       -6.6962741120       -2.4507144272
 H        -6.7023774353       -6.0549699884       -0.8775395731
 H        -4.0827138110       -1.3757362000       -0.8617503022
 H        -4.8318647314       -2.6220738933       -0.0204256494
 H        -6.4472787873       -0.1169793870       -0.5056076753
 H        -5.1596890478       -0.2479274667        0.6339642920
 H       -10.8030800317       -1.3227550311        0.6287276132
 H        -9.7032169983       -1.6716917831       -0.6511331129
 H       -11.4125028739        0.6938530961       -0.7578936549
 H       -11.9231167539       -0.9443801791       -1.1250294460
 H       -12.3414432093        1.6043744528       -5.7776131788
 H       -12.1847053831        0.0215414007       -6.3691787168
 H       -11.5627760721        1.5751041112       -8.1714597674
 H       -10.1184895502        0.6014503046       -7.6577133964
 H        -7.4751019679        1.3205991643      -11.0581709696
 H        -7.9223093623        2.9379680537      -11.2679773092
 H        -9.0836474187        1.7622747359      -11.3128105917
 H       -10.5353876523        4.9725573000       -8.8409148461
 H       -10.5903576193        3.7546688624      -10.1965743067
 H        -9.1866020752        4.9759299489       -9.9390230144
 H        -7.4500538296        3.1691235071       -7.3687688126
 H        -8.5202378494        4.7313834373       -7.1549153319
 H        -7.3211579317        4.5985989668       -8.4139127088
 H       -12.3061111442        2.4001777539       -4.1551055407
 H       -12.0411198077        2.2725478699       -2.3997499008
 H       -12.9971536741        0.9896038354       -3.3719532833
 H        -9.5409615332        2.7355256024       -3.9314148280
 H        -8.4936975480        1.4477990951       -3.8759584485
 H        -9.4376937887        2.2302024848       -2.4340743419
 H        -9.0761826243       -0.4181846371        3.4788432749
 H        -8.0394674697       -1.9001626132        3.1785245617
 H        -9.6106237852       -1.8640819028        2.4934575292
 H        -6.5117009058        0.5236308732        2.6838263475
 H        -8.0102526411        1.3535259422        2.5535338570
 H        -7.1629447333        1.3399070086        1.1435770165
 H        -4.1471779263       -5.4848820841       -2.0248427133
 H        -5.0381822848       -4.9495219075       -0.7319548288
 H        -3.7194287930       -3.9857163564       -1.3648443275
 H        -3.7789865678       -4.1232676959       -3.8888230049
 H        -4.7970132169       -2.7642549628       -4.3145930358
 H        -5.3414282107       -4.3198720147       -4.7216169285
 H       -10.8876081783       -8.2116550134       -2.2688176875
 H        -9.8498622796       -9.7280044479       -1.9569465721
 H       -10.9795805785       -9.6982972134       -3.2854477348
 H        -7.8722742345       -9.7530147110       -5.1116717075
 H        -9.5855539421      -10.4201681190       -5.2376701160
 H        -8.3527985404      -10.8445803767       -3.9012139927
 H       -10.8333091758       -1.9246524710       -8.0192384610
 H       -11.2909158158       -2.5573974411       -6.4410804303
 H       -12.2608587494       -2.8657608542       -7.8948939686
 H       -12.2589938558       -4.9416390940       -8.7368135444
 H       -10.7393098353       -5.9276332901       -8.9662008175
 H       -10.9490882919       -4.3082588846       -9.7177479348
 H        -6.6050087262        0.1422071427       -6.8714279059
 H        -5.0447550717        0.7059825111       -7.3465148492
 H        -5.2071764795       -0.3098138770       -5.8099606592
 H        -5.8196511468       -0.2343288032       -9.3125682726
 H        -7.1433391205       -1.3138477090       -9.1950712408
 H        -5.6931953514       -1.9739726358       -9.8766690462
 H        -0.3162013441       -4.6041099380       -7.9319367741
 H         0.2444128758       -5.2215628712       -9.4254630027
 H        -1.4648744468       -4.8188469949       -9.3368808679
 H         0.8571653403       -2.3899621317       -7.9452771845
 H         1.3033854630       -1.3513379923       -9.3084335531
 H         1.8503731535       -3.0957505552       -9.1713145581
 H         2.0370999528       -1.6337185962      -17.0805188586
 H         0.7654575619       -2.8204435452      -16.3753948013
 H         2.0528726073       -3.3761423166      -17.3214631147
 H         2.9048819024       -4.6356551248      -13.9873105539
 H         3.0522997286       -5.0578884463      -15.7265259309
 H         1.5073954170       -4.6872788538      -15.0843630986
 H         7.7005389334       -3.7021607231      -19.2558269474
 H         5.9040465196       -3.3190520183      -19.3030169533
 H         6.6191462179       -3.5920538338      -17.7650646637
 H         9.1132489441       -1.9789792465      -19.0355394891
 H         8.8092292351       -1.7507286727      -17.2790106009
 H         8.5284357847       -0.4119187446      -18.4829997975
 H         5.6605069390       -0.1751060480      -24.7701166458
 H         7.2034533079       -0.0540821331      -25.3138166949
 H         6.1703218617        0.9934370754      -26.0200140472
 H         7.3426250556        2.9208064788      -25.2533643538
 H         8.7665836210        2.1154386547      -24.2174607782
 H         7.8379280510        3.4169436166      -23.5971510127
 H         1.9192626782        4.5627088468      -18.4821876655
 H         3.7819592345        4.6753301559      -18.6467430946
 H         2.9194941521        3.1401273682      -18.8495545418
 H         0.6386191774        3.6795269345      -20.2122527610
 H         1.9660821545        2.4282192309      -20.4057035138
 H         1.1848910829        3.2930720163      -21.8347647148
 Na       -8.6375806101       -2.5557438105       -4.5018267411
 Na        5.4978435766        1.4282352552      -20.2282266182
