232

 C       -22.5201031163       -6.5769924299       -2.4222436901
 C       -21.3762572249       -5.7767577394       -3.0053315796
 O       -20.3542869537       -5.6709242851       -2.3542710929
 C       -21.3487066316       -5.0448123789       -4.4807272135
 C       -20.3373299256       -3.8068536043       -4.3619473606
 O       -20.1024251287       -3.2844355160       -3.2738856268
 C       -19.5383182178       -3.3505525726       -5.6816330270
 C       -18.4456519888       -2.4697160561       -5.1328706878
 C       -17.4472172955       -3.1092952554       -4.1821201159
 O       -17.4152198795       -4.3269984372       -4.1747237872
 C       -16.3633575873       -2.2346266802       -3.2804581073
 C       -16.2014779581       -3.1520429338       -1.9597691647
 O       -17.0578916265       -3.2510370079       -1.1121256480
 C       -14.8803788525       -3.9311239596       -1.7941250929
 C       -14.9681995450       -5.1454271009       -0.8328976441
 C       -15.5129373856       -6.4644108139       -1.2977751133
 O       -16.6602483489       -6.6945321893       -1.6708195791
 C       -14.4756844270       -7.7028621010       -1.3470564439
 C       -13.3565669275       -7.1645544263       -2.3235384052
 O       -13.7462450489       -6.5984938114       -3.3178428884
 C       -11.8415857904       -7.1892486742       -1.9587967946
 C       -11.2541218215       -8.5152703303       -2.6467484551
 C        -9.9773155189       -9.0486522638       -1.9398735356
 O        -9.6760510100       -8.7297256533       -0.8289363470
 C        -9.0826580261      -10.0464550779       -2.8356566662
 C        -8.0262808412       -9.0512354482       -3.4461930732
 O        -8.3842663967       -7.9122907294       -3.5994196722
 C        -6.6816867818       -9.5660658628       -3.9723511334
 C        -5.7188118199       -8.3701421066       -4.0934457727
 C        -5.8805311007       -7.6755456175       -5.4850640905
 O        -5.9822474544       -8.4016919081       -6.4428666401
 C        -5.9726373504       -6.1785924642       -5.5688839298
 C        -4.7889896171       -5.7431564103       -6.7366013509
 O        -3.7145611849       -5.3573298732       -6.3630266809
 C        -5.2571482949       -6.0073408766       -8.1530423421
 C        -4.1369818928       -5.5930935544       -9.1896836665
 C        -4.5934314708       -5.5287648794      -10.7138023005
 O        -4.2880586671       -6.3100775050      -11.5578779094
 C        -5.2559689754       -4.1009947129      -11.1169893390
 C        -4.0138249742       -3.0695631861      -11.0789763273
 O        -4.0730877419       -2.0127658602      -10.4627309780
 C        -2.7433569832       -3.4131401411      -11.8644497869
 C        -1.8497610620       -2.2163842828      -11.9999483026
 C        -0.5647122306       -2.3132864429      -12.8037256323
 O        -0.6044571833       -1.6987451525      -13.8545623447
 C         0.7123518955       -3.2073581065      -12.5755413104
 C         2.0300922422       -2.3863061249      -12.7864249818
 O         2.9872602625       -2.9483205432      -13.3201686702
 C         2.2837140253       -1.0664580959      -12.0342603930
 C         3.6785133819       -0.5123597755      -12.2043349146
 C         3.9858280997        0.6212663495      -11.2887629736
 O         3.2267588504        1.1674087532      -10.4797840124
 C         5.4944729867        1.2317865645      -11.3153185387
 C         5.1351246886        2.4349720915      -12.2623165311
 O         5.4469012919        2.2668928510      -13.4128701034
 C         4.3037547219        3.5974877379      -11.7438426920
 C         4.9301337934        4.9415742071      -11.6474038322
 C         5.7597557685        5.2659569205      -12.9121587777
 O         5.5405689367        4.7492358988      -13.9748263234
 C         7.0045831648        6.2892857931      -12.6922914609
 C         7.1805681553        6.8144895200      -14.1118663682
 O         6.7140151975        7.8219468341      -14.6080643242
 C         8.0538989645        5.8625676215      -14.9802095718
 C         8.0659510571        6.1981105591      -16.4739208342
 C         6.6747670156        6.2713773874      -17.1376229725
 O         5.6989635050        5.5982034887      -16.9606727371
 C         6.6188076040        7.2753477400      -18.2856358681
 C         7.7341171658        7.0388699323      -19.2813949384
 O         8.4208748857        7.9205112130      -19.6155832278
 C         8.0318347891        5.6415203175      -19.9036764532
 C         9.5082204678        5.5466713696      -20.1843987997
 C        10.1506055888        4.3407981657      -19.5003670387
 O        10.6918054267        4.3389680823      -18.4012800181
 C        10.1711686002        2.8374906330      -20.1411336747
 C         9.1679220381        2.0798397338      -19.3509056112
 O         7.9785521387        2.0902047886      -19.6562723716
 C         9.7057898822        1.5876981744      -17.9397314185
 C         8.7239777791        0.3960041858      -17.4655520513
 C         7.2229065008        1.0808523153      -17.3703334819
 O         7.2258924649        2.1356684286      -16.7611969668
 C         5.9094235098        0.4049336006      -17.9152052325
 C         4.8948067197        1.5235296669      -18.5142937131
 O         4.6013635206        2.5219881418      -17.9447439873
 C         4.3313338720        1.4740294648      -19.9602860705
 C         6.1613736115       -0.6356016362      -18.9301790307
 C         5.1726886876       -0.1278362800      -16.6581944990
 C         9.7954630214        2.7499812851      -21.6337941801
 C        11.5336037087        2.2106733349      -20.0734903819
 C         5.1929354569        7.0888889377      -19.0824785493
 C         6.6472871105        8.6886910172      -17.7744373672
 C         6.3855969812        7.4519655757      -11.8419501671
 C         8.1632688755        5.4823885104      -12.0225738502
 C         5.8624669807        1.7761548410       -9.7504825280
 C         6.7202832342        0.3245676642      -11.8173354598
 C         0.6576471375       -3.8859082821      -11.1351871174
 C         0.6367972234       -4.3187676754      -13.7116303468
 C        -5.9819718847       -4.1441872783      -12.4380305862
 C        -6.2295415040       -3.5450153531      -10.0849052042
 C        -7.3632942830       -5.7340475657       -6.0631876831
 C        -5.5870473380       -5.4203238547       -4.2746761350
 C        -8.4545297171      -11.2539363129       -2.0028471384
 C        -9.9077568552      -10.6733836360       -3.9606435585
 C       -14.1572373758       -8.0936820390        0.0829494751
 C       -15.1652109875       -8.9883993958       -2.0601961420
 C       -15.0827050353       -2.1009251072       -4.0542536065
 C       -16.9535253564       -0.8618791728       -2.6671989761
 C       -20.9451402475       -6.0868807580       -5.5005692117
 C       -22.7631412300       -4.5707244905       -4.8605468695
 H       -22.7939623493       -5.9138202870       -1.6058292571
 H       -22.0533256381       -7.5069246981       -1.9918668475
 H       -23.2797487698       -6.8794973608       -3.1064279436
 H       -20.1246819268       -2.7704299106       -6.3967565210
 H       -19.2532303337       -4.2925844986       -6.1741366086
 H       -18.8203954087       -1.5369889428       -4.7160952511
 H       -17.8237028568       -2.1527897546       -5.9928977901
 H       -14.2357787369       -3.2447673323       -1.2678208083
 H       -14.3748463187       -4.2037274451       -2.7652918366
 H       -15.6117201737       -4.8154229356       -0.0458374358
 H       -14.0016302187       -5.2319227795       -0.2836167100
 H       -11.6481283713       -7.0800299192       -0.9421588618
 H       -11.4425202486       -6.3731214433       -2.5671400956
 H       -10.9268456273       -8.3068112582       -3.7139139506
 H       -11.9564686126       -9.2894830994       -2.7480839397
 H        -6.7684099390      -10.0688970038       -4.9952428097
 H        -6.0937281302      -10.1839130333       -3.2664853441
 H        -4.7426744740       -8.8247579484       -3.8598083669
 H        -5.9421246915       -7.6618963933       -3.3244680829
 H        -6.2239144800       -5.5186519176       -8.4143476746
 H        -5.4332837336       -7.0503933871       -8.2890123859
 H        -3.3082117390       -6.3560338655       -9.1605885709
 H        -3.6731177418       -4.6280376976       -8.9903102059
 H        -2.8379461237       -3.8177415818      -12.8571102215
 H        -2.1751577144       -4.1773020860      -11.3985593188
 H        -1.8004792387       -1.7951916924      -11.0147511190
 H        -2.4974704881       -1.4137759811      -12.5573370233
 H         2.0888780650       -1.3872904706      -11.0441722744
 H         1.6173739741       -0.2412034943      -12.2843465137
 H         3.9120573669       -0.2323138421      -13.2583177389
 H         4.3989429160       -1.2508041418      -11.8326029739
 H         3.9100765523        3.2645643379      -10.7284352620
 H         3.5883805655        3.7905520555      -12.5642540681
 H         5.5726460531        5.1139148129      -10.7359185281
 H         4.1792068791        5.7623971694      -11.6195567604
 H         7.5947731952        4.9126719853      -14.9261143825
 H         9.0299623528        5.6617426142      -14.4753627784
 H         8.4801581213        5.4894679698      -17.0972053990
 H         8.4983829154        7.0991367543      -16.8468661801
 H         7.5169673972        5.4794447587      -20.8424193091
 H         7.6748978430        4.9625746752      -19.1151960928
 H        10.0426188907        6.4277686559      -19.8657193046
 H         9.7593443550        5.3418065103      -21.2745149103
 H         9.7109315865        2.4734523727      -17.2159484008
 H        10.7589564367        1.3533553781      -18.1457112696
 H         9.0059626547        0.0487965930      -16.4554639190
 H         8.5759363857       -0.4129243755      -18.1857098090
 H         4.4311297740        2.4751193717      -20.3823548530
 H         3.2147178757        1.1740207193      -19.9246760918
 H         4.8918947665        0.8135106257      -20.6170582047
 H         5.1626720220       -1.0462243096      -19.2823175266
 H         6.6427318000       -1.3549052826      -18.3253468219
 H         6.8214690652       -0.3186688997      -19.6978096159
 H         4.0953859893       -0.3631623346      -16.9534653105
 H         5.2761336624        0.5904657262      -15.8356674052
 H         5.4741746413       -1.1195437019      -16.4477434610
 H         9.6816099610        1.7318734682      -21.8345598834
 H        10.5833924645        3.1761451482      -22.2816733291
 H         8.8082284688        3.1648941077      -21.7285248867
 H        11.4160999948        1.0936105647      -20.1460016922
 H        12.0198165410        2.3937917808      -19.0840852508
 H        12.3032104512        2.5886438897      -20.7771308785
 H         4.4636818110        7.2234785076      -18.2702850003
 H         5.2121640521        6.0906152406      -19.5082790766
 H         5.0855453040        7.8040928490      -19.8667704812
 H         7.6656194869        8.9503622998      -17.5428339635
 H         5.9844256543        8.8412198937      -16.9858870241
 H         6.2823803685        9.4532555583      -18.4683525471
 H         7.1710995623        8.2055930839      -11.8494891790
 H         6.2024569867        7.2639821559      -10.7637855180
 H         5.4239640071        7.8932071990      -12.1352259674
 H         7.8822324689        5.2000756148      -11.0015476313
 H         9.0171281435        6.0674600235      -12.0663147786
 H         8.2846077806        4.5667609823      -12.5745109611
 H         6.2771586797        2.8316969190       -9.7332820963
 H         6.5864858038        1.0924372724       -9.2365789364
 H         4.9892444154        1.6474546090       -9.1410922957
 H         6.9782752803       -0.2895901206      -11.0029502751
 H         7.4695278203        0.9760513113      -12.2296443105
 H         6.2336999952       -0.1509534860      -12.6198844699
 H         0.6073900052       -3.0977491384      -10.3395794930
 H         1.4452816666       -4.5079404832      -10.8323507340
 H        -0.2484067957       -4.4922939011      -11.1186544853
 H         0.4203428436       -5.3173356209      -13.2213450167
 H         1.5722783647       -4.4672031805      -14.2992826719
 H        -0.1566941028       -4.0890495509      -14.4255948935
 H        -6.1598636833       -5.1696041333      -12.8031714729
 H        -5.4445626863       -3.6788661017      -13.2221785166
 H        -6.9826031200       -3.7192277887      -12.2678209025
 H        -6.3660517776       -2.5689210312      -10.4439049334
 H        -5.8472508834       -3.3941843521       -9.0632243926
 H        -7.2000876470       -3.9783000958       -9.8722674274
 H        -7.7129346792       -6.4327439840       -6.8641792723
 H        -7.3758026135       -4.7169117856       -6.5164048060
 H        -8.1734290147       -5.7330650492       -5.2647050896
 H        -6.0042781449       -5.7973304827       -3.3505840541
 H        -5.8235410333       -4.4003055777       -4.5010768114
 H        -4.4647297467       -5.5007839226       -4.2349964962
 H        -9.2861294492      -11.6674536790       -1.4545872156
 H        -7.7409405322      -10.8301617632       -1.3045387314
 H        -7.9574501421      -12.1010104107       -2.5272250814
 H       -10.6076982732      -11.3995984438       -3.5866428463
 H        -9.2540829928      -11.3344704337       -4.5988083390
 H       -10.2711786762      -10.0423188220       -4.7166392240
 H       -13.3155871917       -8.8026912825        0.1874042174
 H       -14.8995307757       -8.4648631065        0.6694993526
 H       -13.7822112912       -7.2312406097        0.6676308057
 H       -15.2293037042       -8.8945539244       -3.1320220431
 H       -16.0919129294       -9.0326543079       -1.6147541733
 H       -14.6288558617       -9.8553993438       -1.7748730279
 H       -14.8782991106       -3.0341675521       -4.5935137621
 H       -14.2003282797       -2.0187755639       -3.4028847361
 H       -15.1674758936       -1.2626959981       -4.6879636171
 H       -17.9751850167       -1.0117966160       -2.5480958845
 H       -16.8083156809       -0.1065513471       -3.4766660957
 H       -16.2993600536       -0.5229773251       -1.7657210009
 H       -19.8743873004       -6.2962665545       -5.5530895900
 H       -21.3538996133       -5.8544910359       -6.5124367018
 H       -21.3576873032       -7.0894890756       -5.3452741410
 H       -22.6658396688       -4.1957201694       -5.8872960170
 H       -23.1763563126       -3.7631241530       -4.2976516177
 H       -23.4957038700       -5.3701509352       -4.7940422554
 Na      -18.3006078021       -5.0285203916       -1.9743234005
 Na        5.3412935846        3.3547770706      -15.9853592504
