232

 C         2.9115338233        6.8755176091      -20.2482865861
 C         2.1784715926        5.6785763639      -20.9211385455
 O         1.3335611595        5.9862418879      -21.7376533115
 C         2.5673891582        4.2587478455      -20.5309528042
 C         3.8382682215        3.9363631040      -21.4850175232
 O         4.8513438330        3.4829874530      -20.9986673943
 C         3.8148184402        4.0848427678      -22.9871315687
 C         5.0705163615        3.5814484941      -23.7104868710
 C         5.4185264937        2.1739456911      -23.3806030704
 O         4.5963609942        1.4861474684      -22.7988904299
 C         6.8233506093        1.6459458208      -23.8379229251
 C         7.4086812333        0.8070320327      -22.7190405427
 O         7.7817242151        1.4372955309      -21.7039425521
 C         7.4995836053       -0.6750924248      -22.7765099108
 C         7.8452014418       -1.2154651143      -21.3714259610
 C         6.7542493579       -1.2068453304      -20.2339404314
 O         5.5814232649       -0.9194558637      -20.5020742858
 C         6.9894715517       -1.6295857710      -18.7448051984
 C         6.1683900934       -0.7350397104      -17.8190946650
 O         5.4427697584        0.1962304742      -18.1708639610
 C         6.1734357804       -1.1843566566      -16.3912948978
 C         4.7304766843       -1.2170893348      -15.7772228174
 C         4.0280396177       -2.5105665914      -15.9872712397
 O         4.6396861769       -3.4131159053      -16.5468336670
 C         2.5737986131       -2.8707609126      -15.5235544670
 C         2.3398681728       -1.9577500896      -14.1769231041
 O         2.4696263614       -0.7695021458      -14.4753619964
 C         2.1667593787       -2.4166231449      -12.7105480997
 C         0.7402244334       -2.1273410021      -12.1295255672
 C         0.1830647526       -3.3332145546      -11.2773972064
 O         0.0628398731       -4.4055976359      -11.8012315892
 C        -0.1007136599       -3.1046159120       -9.7512547655
 C        -1.3075795447       -2.1551007664       -9.6334369299
 O        -2.2465397931       -2.2199941191      -10.4268929282
 C        -1.4823763799       -1.4369816705       -8.3050636009
 C        -2.8459681841       -0.8011320146       -8.0743307193
 C        -4.0091974379       -1.7412545545       -7.7019079993
 O        -3.7458587524       -2.9425151109       -7.5003884106
 C        -5.4217723819       -1.2712527801       -7.6483316514
 C        -6.3126372222       -2.5467103624       -7.0330370325
 O        -6.7063079362       -2.2741470865       -5.9577752846
 C        -6.5802917270       -3.8993297313       -7.7246697520
 C        -7.9316009308       -4.4197671568       -7.1418786602
 C        -9.1203880146       -4.1095947582       -8.0530776077
 O        -8.9335547834       -3.4414501129       -9.0387029348
 C       -10.5879369437       -4.4370039663       -7.6799687304
 C       -10.7411569789       -5.0830267293       -6.2886962694
 O       -10.1985523977       -4.5398464651       -5.3048604362
 C       -11.4221964958       -6.4244449201       -6.2569268749
 C       -11.0914025702       -7.0675537550       -4.8905314010
 C        -9.6951654321       -7.6902574187       -5.0310366321
 O        -9.0288429293       -7.5068223759       -6.0357031486
 C        -9.1407879974       -8.6094969630       -3.9106010898
 C        -7.9169183672       -7.8964117868       -3.1896115370
 O        -6.7941555440       -8.2245435358       -3.4642182783
 C        -8.2526399363       -6.9768929909       -1.9814655398
 C        -6.9253263879       -6.0567018993       -1.6255723287
 C        -6.8582086849       -4.7402201557       -2.3952355990
 O        -7.7406256079       -4.3943342524       -3.1648620353
 C        -5.4874303839       -3.9418739112       -2.5020881141
 C        -5.8667944030       -2.4704351978       -1.9375402697
 O        -6.7468377740       -1.8157700741       -2.4064803131
 C        -5.1031697656       -2.0811578113       -0.7151685740
 C        -5.7929395871       -1.0666555313        0.2203575478
 C        -7.0927150526       -1.4884736702        0.8899674145
 O        -7.5480510926       -2.6004575539        0.7599672274
 C        -7.9148973791       -0.3365436247        1.5349192159
 C        -8.9494729431        0.1407963373        0.4890904368
 O        -8.8070580946        1.2004579650       -0.0743620190
 C       -10.1691368472       -0.6992181060        0.0907047207
 C       -11.0802616430       -0.0846015202       -1.0571137462
 C       -10.5584811546       -0.3978947966       -2.4310279046
 O        -9.9038633239       -1.4093071717       -2.6195572200
 C       -10.8047614192        0.6727638357       -3.5060034886
 C       -10.5850837279        0.3026124615       -5.0014705664
 O        -9.6261401057       -0.3322029892       -5.3803929926
 C       -11.6005336082        0.9050441933       -6.1781287826
 C       -10.7596254651        1.2912842902       -7.4485606897
 C       -10.1089897639        2.6391737510       -7.2803733031
 O       -10.4022023823        3.3677622311       -6.3861889409
 C        -9.1500295883        3.2310119898       -8.4633688541
 C        -8.4976922565        2.0655106560       -9.3560049531
 O        -8.3202093951        0.9780262201       -8.9256929847
 C        -8.3808748740        2.3407828974      -10.8678784817
 C        -9.9836295583        4.0715106739       -9.4573839963
 C        -8.0424146418        4.1067641477       -7.8152769414
 C       -11.9802678531        1.5079117524       -3.1987905309
 C        -9.5882089796        1.6940650696       -3.3162893962
 C        -8.7241471230       -0.9607477591        2.6556120342
 C        -7.0673197982        0.8238371704        2.1730490940
 C        -4.3671284083       -4.5463603188       -1.7398590306
 C        -5.1833782947       -3.6937267252       -3.9574569657
 C       -10.2103873227       -9.0486619710       -2.8598397909
 C        -8.7098605534       -9.9441183994       -4.5568709734
 C       -11.1189050380       -2.9530190842       -7.5633799800
 C       -11.4554140820       -5.2247506198       -8.7468419619
 C        -5.6308977678        0.0532266929       -6.9030127889
 C        -5.7458810059       -0.9887010406       -9.1518476388
 C        -0.5308935559       -4.4081348507       -9.0989433841
 C         1.2364034455       -2.5394043085       -9.1916644766
 C         1.5003953456       -2.3526618001      -16.6150119530
 C         2.4093207136       -4.4141500807      -15.2963405003
 C         6.6366461483       -3.2539472862      -18.7691582233
 C         8.4986895580       -1.4233123057      -18.3750863301
 C         6.5542808298        0.8803534550      -25.0615938405
 C         7.7981860372        2.8599664091      -24.1580807437
 C         3.1571255929        4.1327475881      -19.0645296132
 C         1.5021047010        3.2417566134      -20.9677797753
 H         2.1647689592        7.5751814035      -19.9897841553
 H         3.4374138464        7.4652067198      -20.9736489638
 H         3.5079917817        6.7949158334      -19.3468913480
 H         3.8672787426        5.1723537961      -22.9532278878
 H         2.8610614928        3.7374276383      -23.4838997322
 H         5.8679426135        4.2609125395      -23.6284781253
 H         4.8858614177        3.6203926684      -24.7965097103
 H         8.3625498880       -1.1494677718      -23.3949545459
 H         6.5725750607       -1.1581932234      -23.1050519285
 H         8.7115926181       -0.5795478263      -20.9061703783
 H         8.0431490819       -2.2455653890      -21.4266029824
 H         6.8774737744       -0.4468972667      -15.8811447281
 H         6.5548909242       -2.1864318622      -16.3380468749
 H         4.1983489345       -0.3399957163      -16.2759452044
 H         4.8339119481       -0.9078128279      -14.7013376970
 H         2.8566246771       -1.7968921461      -12.1181206277
 H         2.4958946395       -3.5026408271      -12.6620021710
 H        -0.0337971439       -2.0383185533      -12.9072699137
 H         0.8269764575       -1.2017826905      -11.6289586343
 H        -0.8363532827       -0.5752643829       -8.1688683748
 H        -1.2778828088       -2.1757153673       -7.5387020043
 H        -3.1393195220       -0.1619221254       -8.9242035494
 H        -2.7233248013       -0.0383363173       -7.3406586187
 H        -5.7719542031       -4.5455446598       -7.3364689726
 H        -6.6651078556       -3.7589412782       -8.8113769324
 H        -7.9979856683       -3.9434691132       -6.2457376474
 H        -7.8759693795       -5.4271099021       -7.0349088830
 H       -11.0431430345       -6.9659221108       -7.0648189968
 H       -12.4782576288       -6.3081169954       -6.3843594290
 H       -11.7442895703       -7.9071384809       -4.6771011740
 H       -10.8812718804       -6.4081950819       -4.0302513698
 H        -8.5250520593       -7.5044131919       -1.0489776427
 H        -9.0221525347       -6.3145778115       -2.3584022184
 H        -6.1457435062       -6.8352205912       -1.9605135647
 H        -6.7630783255       -5.7613667744       -0.6006010777
 H        -4.1589093785       -1.7249333470       -0.9794827731
 H        -4.8033536479       -3.0132288212       -0.0969876258
 H        -6.0537815439       -0.0968095311       -0.2703879649
 H        -5.0928135971       -0.8480078847        1.0087039959
 H       -10.8259041065       -1.0723892524        0.9102398861
 H        -9.7200551735       -1.6083014433       -0.3331298140
 H       -11.1498631572        0.9762538434       -0.7191060773
 H       -12.0744363798       -0.6250162420       -1.0411560508
 H       -12.2461726941        1.6682159935       -5.8049669050
 H       -12.3093223009        0.1298329271       -6.3890540181
 H       -11.3736364911        1.2238681934       -8.3831467804
 H        -9.8810785396        0.6025101602       -7.3856663508
 H        -7.8355583837        1.6049019245      -11.4571715762
 H        -7.8792128557        3.2708531408      -11.1161174356
 H        -9.2412333062        2.4148585494      -11.4606722081
 H       -10.4700660972        4.8508189626       -8.9034070727
 H       -10.7443664541        3.4222288824       -9.9005555188
 H        -9.3272337748        4.5315953300      -10.1647600761
 H        -7.2589273131        3.4970873721       -7.3342027609
 H        -8.6480656344        4.8222599860       -7.2382522302
 H        -7.6517507963        4.7876232863       -8.5015314196
 H       -11.9749806704        2.3171293895       -3.9126941363
 H       -11.8684664638        2.0561017282       -2.2373523361
 H       -12.9479827173        1.0541335207       -3.3123355532
 H        -9.5992926211        2.4163769968       -4.1612031798
 H        -8.6688825391        1.2000960692       -3.5112574587
 H        -9.5427164850        2.3693577582       -2.4920338978
 H        -9.3794165706       -0.3058093692        3.1511396389
 H        -8.0718258996       -1.4885983583        3.3534325371
 H        -9.2772662832       -1.7913613038        2.2443086928
 H        -6.7458573832        0.3535331934        3.0816489815
 H        -7.6953176451        1.7084576697        2.4616072545
 H        -6.3672321521        1.2621460630        1.4164072883
 H        -4.0961341354       -5.6384870461       -2.0311225715
 H        -4.4164592530       -4.6480593350       -0.6621868882
 H        -3.4974204685       -3.9264726363       -1.9698488863
 H        -4.1723159429       -3.5197798372       -4.1673064572
 H        -5.6779221510       -2.7525366900       -4.2726047181
 H        -5.6370211614       -4.4932825994       -4.6404415328
 H       -10.4904625762       -8.0725160540       -2.4252246917
 H        -9.7441150714       -9.6816350246       -2.1297047306
 H       -11.1748991271       -9.4810066090       -3.2943175580
 H        -7.9780207630       -9.7945369492       -5.3445507565
 H        -9.5814295882      -10.4738199890       -4.8934685391
 H        -8.2275238742      -10.5707958963       -3.8532169484
 H       -11.0224622115       -2.4682741229       -8.5667900457
 H       -10.5056440875       -2.4044375748       -6.7951337482
 H       -12.2054752287       -2.9205425945       -7.4013514037
 H       -12.3963897392       -5.3294042592       -8.2673898980
 H       -11.0497853806       -6.1521426101       -9.0233534871
 H       -11.5665082909       -4.6529738893       -9.6924096355
 H        -6.4856743789        0.6435018601       -7.2545921833
 H        -4.7997103865        0.7118385147       -7.0878093371
 H        -5.6783778313       -0.1400853721       -5.8282009898
 H        -5.1029272207       -0.1919521766       -9.6183075046
 H        -6.7907812872       -0.6065298401       -9.1698550022
 H        -5.7430284561       -1.8560405241       -9.7880474351
 H        -0.5298615708       -4.3187881003       -8.0161897699
 H         0.0229620518       -5.3080519642       -9.3476325325
 H        -1.5405244860       -4.5878359363       -9.4013725425
 H         1.2156387846       -2.5343315666       -8.1101504269
 H         1.1599951879       -1.5706820359       -9.6005071477
 H         2.1505488480       -2.9456169307       -9.6438426627
 H         1.2129776718       -1.3168046361      -16.3342242661
 H         0.6506065148       -3.0571388594      -16.7437856995
 H         1.9716158700       -2.3882857247      -17.7009818926
 H         3.3782725480       -4.7979215916      -14.9955895941
 H         2.0121308530       -4.9341353242      -16.1601610416
 H         1.7688155439       -4.7109905685      -14.4648279974
 H         7.2932267424       -3.6130383836      -19.5395899571
 H         5.5853091439       -3.4119518959      -19.0071967521
 H         6.9347822368       -3.7315160319      -17.7410696796
 H         9.1793340660       -1.8335308444      -19.1506961099
 H         8.6604367019       -2.0154240560      -17.5446207963
 H         8.6254360637       -0.3314412850      -18.1779680394
 H         6.0391031131       -0.1437856070      -25.0526534132
 H         7.4262328184        0.8148437406      -25.7157335366
 H         6.0847731921        1.4462679092      -25.7751483765
 H         7.4166117040        3.4142104214      -25.0060197546
 H         8.6346280482        2.2790402535      -24.4913344398
 H         8.2085601093        3.3048165454      -23.2540706789
 H         2.4653087256        4.6927204844      -18.3778044271
 H         4.2093721129        4.4552596031      -19.1089848203
 H         3.0835047197        3.1168519515      -18.7517970951
 H         0.7413261996        3.1588240538      -20.2903837513
 H         2.1409017947        2.3396862862      -21.0584607211
 H         0.9938746263        3.5430102155      -21.8452000488
 Na       -8.7423606522       -2.4543224378       -4.3765103805
 Na        5.3305284644        1.3025615055      -20.3347399087
