232

 C         2.9310521912        6.8873897167      -20.2303600210
 C         2.0975544174        5.6477591198      -20.9098455366
 O         1.3802168088        5.7486868267      -21.8694145625
 C         2.5972486546        4.1268158446      -20.6728362173
 C         3.9174551778        3.8750445526      -21.5650727994
 O         4.9717193519        3.7328409716      -20.9693747481
 C         3.8284500568        4.0171602612      -23.1790791244
 C         5.0796774346        3.7426978301      -23.9231470478
 C         5.6495776361        2.3178749985      -23.4128438534
 O         4.8348968564        1.5964414493      -22.8728924714
 C         7.0551661723        1.8893772713      -23.8293632114
 C         7.4444078389        0.9160054624      -22.6645577017
 O         7.6843119283        1.4819841546      -21.5514259975
 C         7.5100728432       -0.5651844085      -22.8028265050
 C         7.9758653556       -1.2604484668      -21.5429908261
 C         6.7723044222       -1.2654641301      -20.4741038686
 O         5.6170004961       -1.1106870821      -20.8626939115
 C         6.9160282507       -1.5652209337      -18.9683363266
 C         6.0024972252       -0.6425703513      -17.9696772405
 O         5.5192825499        0.4448644593      -18.3579190688
 C         6.0314333328       -1.0075811764      -16.5240530029
 C         4.6301705760       -1.0850067362      -15.8980110161
 C         3.8717227592       -2.4786422082      -16.0764357171
 O         4.4073614596       -3.4608846444      -16.5894867954
 C         2.4261657827       -2.5815419008      -15.4838090472
 C         2.2604226105       -1.8476517947      -14.1038569781
 O         2.2102760438       -0.6476008395      -14.0666907135
 C         2.0982973216       -2.6580517234      -12.7416260771
 C         0.7390740495       -2.2625170329      -12.2846524713
 C         0.2285619359       -3.4127080764      -11.4518534642
 O        -0.0616089328       -4.4314856810      -12.0153709864
 C         0.0474428693       -3.2869567166       -9.7828360181
 C        -1.2891578028       -2.2946178715       -9.6277469497
 O        -2.0001934715       -2.0780326455      -10.5934526109
 C        -1.4986854149       -1.6448882631       -8.2209369784
 C        -2.7867968938       -0.9176995265       -8.0612478758
 C        -4.0220831544       -1.9109420613       -7.7730398952
 O        -3.8306715365       -3.0808333651       -7.5016110575
 C        -5.5067573453       -1.3974382875       -7.8039516498
 C        -6.5846934996       -2.2715484687       -6.9586401186
 O        -7.2373041846       -1.7990981277       -6.0756880395
 C        -6.6775125655       -3.6785682235       -7.5743525286
 C        -7.9685085851       -4.4273925882       -7.3274838552
 C        -9.1938091490       -3.8539052026       -8.0815464362
 O        -9.0229026356       -3.2153038771       -9.0861553714
 C       -10.6444023972       -4.2698719110       -7.5509004859
 C       -10.6842580649       -5.0201049620       -6.1909033306
 O       -10.1376951570       -4.5060180210       -5.2091765412
 C       -11.5390741374       -6.3323500022       -6.0560395301
 C       -11.0640099469       -7.3048410239       -4.9685629431
 C        -9.6053304738       -7.7809167595       -4.9933938638
 O        -8.8815567767       -7.4714887266       -5.9019449536
 C        -9.0530405472       -8.6935697192       -3.7727605483
 C        -7.8517453150       -7.8331273693       -3.0106885146
 O        -6.6649884321       -8.0130928162       -3.2470421159
 C        -8.2746210270       -7.0682901138       -1.7682871252
 C        -7.0617881736       -6.0859101432       -1.4336131728
 C        -6.8489602503       -4.7966131363       -2.4304126781
 O        -7.7966950678       -4.4900556672       -3.0915004224
 C        -5.4825151496       -4.0939120474       -2.5049688500
 C        -5.9312466098       -2.7118373703       -1.8126100862
 O        -6.8278280080       -2.0478008780       -2.2651099193
 C        -5.1823335397       -2.2966722627       -0.4496620539
 C        -5.8151668646       -1.0605555189        0.0694557464
 C        -7.0998282821       -1.4248185032        0.8917388228
 O        -7.6784974962       -2.4709360509        0.7660651440
 C        -7.8509276582       -0.2901497168        1.6530360864
 C        -8.8381385753        0.2936842049        0.5452780837
 O        -8.4009857378        1.2328319204       -0.0979385694
 C       -10.2108165910       -0.5161467573        0.2553047712
 C       -10.9794984368       -0.0167849610       -0.9547339694
 C       -10.3549368874       -0.3801803530       -2.3959820798
 O       -10.0502370109       -1.5218240765       -2.6878143014
 C       -10.5569683740        0.8434427034       -3.4058971666
 C       -10.3557983381        0.1811985336       -4.8115926531
 O        -9.4347558438       -0.6119307383       -5.0802857965
 C       -11.2207709791        0.6077100986       -5.9383352105
 C       -10.6080690998        0.9868905127       -7.3383611389
 C       -10.1184431502        2.4805588851       -7.2619028606
 O       -10.2348914155        3.1675022209       -6.2600474933
 C        -9.4614133189        3.1189047268       -8.5874120897
 C        -8.8573532263        2.0823374524       -9.6415388159
 O        -8.5554753775        0.9497898756       -9.2573146206
 C        -8.3824233930        2.6446467847      -10.9989927039
 C       -10.5363343455        4.2012141306       -9.1562229277
 C        -8.1635791092        3.8425145453       -8.1806952101
 C       -12.0457737220        1.2678782520       -3.2985552134
 C        -9.5002063548        1.8994177434       -3.0913025638
 C        -8.6081262065       -0.9364845003        2.9251424910
 C        -6.9918079873        0.9456280993        2.1314367356
 C        -4.4030607972       -4.9601491052       -1.8329156319
 C        -5.1433200332       -3.7710749245       -4.0157898836
 C       -10.0934370653       -9.1128969148       -2.6824172911
 C        -8.3743853349       -9.8690559733       -4.4065950001
 C       -11.6939916176       -3.0763109773       -7.3151421930
 C       -11.0145963191       -5.0665610447       -8.8663943950
 C        -5.4308784777        0.0875921420       -7.1337377616
 C        -6.1836346675       -1.2656024953       -9.2388921286
 C        -0.2314551162       -4.6241261735       -9.2974935699
 C         1.2736415405       -2.4930858129       -9.1540830416
 C         1.4483246616       -1.9193097954      -16.5172587442
 C         2.1180927890       -4.0822723104      -15.3513250171
 C         6.4401895257       -3.0949697757      -18.7429626836
 C         8.4341758220       -1.4559416008      -18.5626542077
 C         6.8324067025        0.9667924190      -25.1437084080
 C         8.1384521999        3.1198234926      -24.0414388802
 C         2.9212642246        3.9079336446      -19.1038587160
 C         1.4457781992        3.1364831005      -21.0532120381
 H         2.2811228080        7.6353829290      -19.7611502656
 H         3.4847752393        7.5759463631      -20.9342566266
 H         3.5895419262        6.6024563209      -19.3925392821
 H         3.5027048933        5.0296182726      -23.4470782961
 H         3.1391968392        3.1894105708      -23.4347478186
 H         5.7627647749        4.5381096718      -23.7498981630
 H         4.8816045423        3.8648431286      -25.0434727677
 H         8.0609652052       -0.9922189476      -23.6182583932
 H         6.4469240843       -0.9497709866      -22.8991811362
 H         8.9016392449       -0.8295397402      -21.0333628312
 H         8.0714563957       -2.2972853190      -21.7809561981
 H         6.5711150606       -0.1528056332      -16.0470270737
 H         6.5627536231       -1.9325201940      -16.3079222982
 H         4.0368344356       -0.2172044731      -16.2408149917
 H         4.7285925225       -0.7606596932      -14.8542047795
 H         2.9204748584       -2.3826927175      -12.0803425777
 H         2.1469452202       -3.7781079050      -12.7874910573
 H         0.0139561575       -2.0955923642      -13.1525197733
 H         0.8107099263       -1.3398626757      -11.7101945342
 H        -0.6354858670       -1.0151126189       -8.0095478866
 H        -1.5717968612       -2.4281446683       -7.4737163867
 H        -3.0969030608       -0.3440821537       -8.9343473536
 H        -2.7356006241       -0.1455177183       -7.2270474324
 H        -5.8352602502       -4.2528489604       -7.2689935271
 H        -6.7214765469       -3.5060008525       -8.6531689979
 H        -8.1548178217       -4.4126694036       -6.2238101984
 H        -7.7539123105       -5.4697595103       -7.6894374321
 H       -11.6174723152       -6.7119147500       -7.1162163620
 H       -12.5664329912       -6.1084698444       -5.7129141620
 H       -11.6020510746       -8.2210098391       -5.0069536051
 H       -11.1736831518       -6.7595821479       -4.0074589487
 H        -8.5234235367       -7.7526754424       -0.9401017912
 H        -9.0331698565       -6.3655539204       -1.8956699417
 H        -6.2303913132       -6.6767008008       -1.7572635128
 H        -7.0736259391       -5.8596194295       -0.3580130277
 H        -4.1087390473       -2.1363360063       -0.6671522052
 H        -5.1981642012       -3.1971424320        0.2881540722
 H        -6.0178269397       -0.4698319197       -0.7830625550
 H        -5.2107918919       -0.4855870283        0.7549443307
 H       -10.8083826858       -0.6635208136        1.1853355751
 H       -10.0042781845       -1.5290896741       -0.0219098822
 H       -11.0267166587        1.0518919900       -0.8090893892
 H       -11.9554830697       -0.4616337508       -0.9149738133
 H       -11.9890478479        1.3119547513       -5.6175086702
 H       -11.8079631692       -0.3119205166       -6.1296152244
 H       -11.4452942276        0.9487642007       -7.9897006111
 H        -9.7896301659        0.3149173057       -7.6010652010
 H        -7.9690618984        1.8878866886      -11.6366441374
 H        -7.5973982876        3.4687594879      -11.0216978483
 H        -9.0949924506        2.9803092327      -11.6879753261
 H       -10.7638928806        4.9120087811       -8.3326881383
 H       -11.4750793395        3.8047571867       -9.5121565497
 H        -9.9635463421        4.6216167233      -10.0462226781
 H        -7.5015708829        3.0551829052       -7.6514158107
 H        -8.3808989708        4.6427758437       -7.3976346612
 H        -7.7845755222        4.2739125575       -9.0831209189
 H       -12.1165089934        2.3539850593       -3.5045243575
 H       -12.3673410808        1.0478254357       -2.2211248721
 H       -12.7503693988        0.6833382950       -3.9311123952
 H        -9.4902718480        2.8986816353       -3.5985375695
 H        -8.5478996165        1.4252348589       -3.3048938444
 H        -9.3914621435        2.1691616695       -2.0320678937
 H        -9.6572025823       -0.6283954582        3.0377734260
 H        -7.9704961204       -0.7444071239        3.8059207622
 H        -8.6326387901       -2.0889128911        2.8305413209
 H        -6.0695461370        0.7092395979        2.5571265643
 H        -7.5993225379        1.3032102356        2.9503500696
 H        -7.0641528720        1.6766256752        1.3702970838
 H        -4.1674598770       -5.8426680354       -2.4532596824
 H        -4.6543881681       -5.3180216339       -0.9099222338
 H        -3.4893770347       -4.4309137181       -1.6595749523
 H        -4.6612396188       -2.8448846233       -4.1422797979
 H        -6.0359560592       -3.6396073156       -4.6334848812
 H        -4.6320076812       -4.6429774988       -4.4737177357
 H       -10.6652309159       -8.2540697474       -2.4521549812
 H        -9.5985801702       -9.6539410688       -1.9287400476
 H       -10.8140977198       -9.7822565414       -3.1886000684
 H        -7.5905923355       -9.6174925075       -5.1786916266
 H        -9.1312249012      -10.4821078545       -4.9542080982
 H        -8.0524275877      -10.5868789629       -3.6489130079
 H       -12.0732076050       -2.7008908903       -8.2435967448
 H       -11.1613639851       -2.2844318241       -6.7997693669
 H       -12.5401909461       -3.4333938053       -6.8054734749
 H       -12.1021697615       -5.2802314719       -9.0088886903
 H       -10.3960837072       -5.9209684339       -9.0144967825
 H       -10.6527201896       -4.3933490597       -9.6798712782
 H        -6.5098100479        0.2833266472       -6.9680390696
 H        -5.1429120230        0.9211265611       -7.8214708659
 H        -4.8205898169        0.1535672946       -6.2506166058
 H        -5.8770427526       -0.3755580986       -9.7162998542
 H        -7.3052377168       -1.4518840732       -9.2483719531
 H        -5.7300010364       -1.9654639472       -9.9142152606
 H        -0.7010585100       -4.5649939248       -8.3379603253
 H         0.7181126493       -5.2242854190       -9.2534004371
 H        -0.8603245609       -5.2933578209       -9.9582457387
 H         1.0174980741       -2.3010104768       -8.1273760196
 H         1.4195678520       -1.6853757057       -9.7400848163
 H         2.2275629861       -3.0831938705       -9.2561426547
 H         1.8633222116       -0.9479633544      -16.7652428079
 H         0.4978105538       -1.6584658139      -16.1872997405
 H         1.2451598054       -2.6580470681      -17.3311559774
 H         2.5574908368       -4.6111859983      -14.4898218817
 H         2.2226620410       -4.6263283988      -16.2852600779
 H         1.0524852915       -4.0459851221      -15.0755497988
 H         7.0499758990       -3.6912242430      -19.3985092020
 H         5.4017840495       -3.2744293616      -18.9737795796
 H         6.8546047197       -3.3013375032      -17.7177500921
 H         8.8331476051       -2.4181547295      -18.8663352165
 H         8.4307032627       -1.4699694889      -17.4927999119
 H         9.0182227696       -0.6702235322      -19.0538605383
 H         5.8656165578        0.5075706011      -24.9689508386
 H         7.5673750296        0.3272237192      -25.6155941177
 H         6.6944968603        1.5237391147      -26.0186015021
 H         7.8382792523        3.6749538199      -24.8749380519
 H         9.1854927143        2.8328212344      -24.1962012543
 H         8.0235676462        3.5592809215      -23.0198079693
 H         1.9924542030        3.6484155627      -18.5625195027
 H         3.3480862970        4.8172167578      -18.7421376281
 H         3.5901203085        3.0771022573      -18.9010338420
 H         0.5929106545        3.2973073852      -20.4298097244
 H         1.8080165312        2.0684130835      -21.1027671186
 H         1.1034571637        3.5061951384      -22.0672718645
 Na       -8.3610663663       -2.5313811284       -4.0669012026
 Na        5.3745973352        1.2791815069      -20.4705980205
