232

 C         2.7143086673        6.5564687572      -20.1131419285
 C         2.0145727842        5.6187440860      -21.1154021697
 O         1.2078928810        5.9246489587      -21.9738238683
 C         2.4977580948        4.0301112662      -20.8843319350
 C         3.8089891602        3.9252636797      -21.6723436245
 O         4.7428826702        3.5558499148      -20.9886918842
 C         3.8572968001        3.9992760679      -23.2434855202
 C         5.3278582654        3.8398348741      -23.7516823666
 C         5.7879710672        2.3843257299      -23.5405418468
 O         4.9885114762        1.4504049802      -23.3475313767
 C         7.4274136650        2.0121024957      -23.6886785989
 C         7.7999539042        0.9582986906      -22.5634894090
 O         7.8898607473        1.3782831130      -21.4612966189
 C         7.9198305148       -0.5612061863      -22.9710743421
 C         8.1408784476       -1.3870069356      -21.7456096125
 C         6.9365335476       -1.1350728951      -20.7546508921
 O         5.8949427068       -0.7233293760      -21.2613281206
 C         6.8752770341       -1.5694373532      -19.2603493247
 C         5.9354810349       -0.6081565461      -18.3805824373
 O         5.1923217948        0.2772411158      -18.8351170257
 C         5.8253663484       -0.9049309880      -16.8476154953
 C         4.3718294322       -0.6088904357      -16.3019567166
 C         3.5732674226       -1.9891529733      -16.0192067905
 O         4.2138331997       -3.0162147828      -16.2437518538
 C         2.0798290257       -1.9616734342      -15.6772004099
 C         2.1646154982       -1.5549957184      -14.1033692752
 O         2.5178415354       -0.4537642717      -13.8627503308
 C         1.8920355563       -2.5729915142      -12.9520735184
 C         0.4144954822       -2.5567611563      -12.5477631545
 C         0.2376011390       -3.7690937456      -11.5086172679
 O         0.3153615548       -4.9015579030      -11.9204433199
 C         0.0215019241       -3.3605508494      -10.0295531150
 C        -1.1762246492       -2.3020352804       -9.8095818792
 O        -1.6474047623       -1.6365089539      -10.6789093970
 C        -1.7040669319       -2.1013458573       -8.3842077564
 C        -2.9405180650       -1.1679279401       -8.2210999536
 C        -4.1301104484       -2.0335387509       -7.8482101832
 O        -3.9729258613       -3.0313301738       -7.2692238296
 C        -5.6422177556       -1.4486197987       -8.0623135281
 C        -6.5707095756       -2.4059834191       -7.2648258193
 O        -6.9519682572       -2.2093645503       -6.0616423004
 C        -6.8162097055       -3.8609558666       -7.8295526185
 C        -8.0549178779       -4.3824845494       -7.1302274481
 C        -9.2280575259       -3.4681057328       -7.4878256299
 O        -9.1216539286       -2.3290803617       -7.7892525337
 C       -10.6739323966       -4.1575893666       -7.2524306269
 C       -10.7739939207       -4.7663599328       -5.7607784310
 O       -10.5362180680       -4.0514921537       -4.8285302291
 C       -11.3357698765       -6.1765118629       -5.5588448019
 C       -10.6337803323       -6.9168917302       -4.3837173933
 C        -9.2603077795       -7.7266845666       -4.6265460370
 O        -8.6567586829       -7.4736278636       -5.6326432682
 C        -8.7280157984       -8.6986701047       -3.6447286936
 C        -7.7938444434       -7.8554607079       -2.7613889383
 O        -6.6138832689       -7.7318100125       -3.0520397625
 C        -8.4436629891       -7.1764364146       -1.5191346059
 C        -7.4711367807       -6.0187545348       -1.1050208001
 C        -7.1634740100       -5.0443346856       -2.2864613884
 O        -7.9651771482       -4.7710181023       -3.1317765420
 C        -5.6685991719       -4.3260014485       -2.4255266124
 C        -5.9152242342       -2.8352849679       -1.8451265866
 O        -6.8001594380       -2.1653380135       -2.3055642899
 C        -5.1058411644       -2.4266455152       -0.6064138248
 C        -5.7153967216       -1.2065465582        0.0506968566
 C        -6.9284819627       -1.5120167524        0.9534389382
 O        -7.4465239649       -2.5883722771        1.2273557382
 C        -7.7329053755       -0.2764638112        1.6183190853
 C        -8.7977158146        0.2366516050        0.5716654493
 O        -8.6103717384        1.2491162065       -0.0973125866
 C       -10.1212189813       -0.5035786011        0.4469046703
 C       -10.8437946397       -0.0311477874       -0.8310911447
 C       -10.2527572437       -0.4122432467       -2.1749409304
 O        -9.6215754324       -1.4373509086       -2.3815329249
 C       -10.5433352777        0.6686433432       -3.3110735531
 C       -10.3175344280        0.0214994739       -4.7724633954
 O        -9.4537307485       -0.8381601951       -4.9405039653
 C       -11.1713301029        0.4316652640       -6.0654891484
 C       -10.3093884338        0.6436027145       -7.3067440467
 C        -9.6760159430        2.0680196793       -7.1458819147
 O        -9.2768746404        2.5629673274       -6.0855315124
 C        -9.6062950023        2.9083663114       -8.4787743429
 C        -9.2994198119        2.1369428451       -9.7954304767
 O        -8.6893111935        1.0004707073       -9.7798928830
 C        -9.4250686881        2.9069182668      -11.0917180044
 C       -11.0130501611        3.5650648653       -8.6289464913
 C        -8.5344001282        3.9197521282       -8.3439000367
 C       -12.0797023231        1.2297991442       -3.1827793532
 C        -9.6670799825        1.8611328156       -3.2042588699
 C        -8.3548235902       -0.8363261783        2.9603023417
 C        -6.7768229644        0.8957161541        1.8241941160
 C        -4.5699564165       -5.1896687841       -1.6686054825
 C        -5.2220288990       -4.2365937496       -3.8574605430
 C        -9.8991158871       -9.3376357355       -2.7591279653
 C        -7.8811807689       -9.8067974342       -4.3817154327
 C       -11.8085089575       -3.1079420568       -7.2878548838
 C       -10.7872888335       -4.9941873091       -8.5345249723
 C        -5.6868711167        0.0812160474       -7.6078227650
 C        -6.1228536624       -1.4759129711       -9.5297934255
 C        -0.2726308982       -4.6533783358       -9.2566376988
 C         1.3925633470       -2.8544395720       -9.4186603034
 C         1.3210578290       -0.8750338781      -16.4777043647
 C         1.4352347796       -3.3790282815      -15.9539192220
 C         5.9990200915       -2.9664144634      -19.2059850637
 C         8.3521402042       -1.6653826805      -18.6648763124
 C         7.5298285138        1.4774828434      -25.1981624027
 C         8.4132093115        3.2597054140      -23.5640611967
 C         2.6343511557        3.6857045939      -19.3798769671
 C         1.4586237655        3.1437059173      -21.5007951043
 H         3.7980014930        6.4560953385      -19.8618676342
 H         2.2485408701        6.5908172335      -19.0959497054
 H         2.6081030142        7.5806692595      -20.4701403868
 H         3.5352234528        5.0302205664      -23.5038474503
 H         3.2481611097        3.1621245663      -23.5639085759
 H         6.0885525928        4.3953307749      -23.1723566076
 H         5.4698544407        4.0082195751      -24.7639617544
 H         8.6418170040       -0.7387320938      -23.7667893773
 H         6.8974477699       -0.7896741107      -23.5145458782
 H         9.0306182394       -1.1795721848      -21.2748157892
 H         8.2169284452       -2.5289327975      -21.9418815554
 H         6.5362658398       -0.2335792128      -16.3382365819
 H         6.0324539181       -1.9428666274      -16.4325838683
 H         3.7433150706        0.1962369350      -16.8012003673
 H         4.4071132660       -0.1136008091      -15.2834790410
 H         2.5586214357       -2.2353685364      -12.0692778086
 H         2.2623139910       -3.5944544448      -13.2020003960
 H        -0.2837815752       -2.6620426274      -13.3724812775
 H         0.0580551710       -1.6134021488      -12.0331663100
 H        -0.9943021495       -1.8091979010       -7.6582056769
 H        -1.9842658852       -3.0693402068       -8.0410111031
 H        -3.2124564544       -0.6111441836       -9.1357059060
 H        -2.7609179029       -0.5631960264       -7.3637639349
 H        -5.9005082653       -4.4353708327       -7.5828716600
 H        -6.8780877234       -3.9601215078       -8.9010873611
 H        -7.9323445752       -4.5064389660       -6.1080578358
 H        -8.2611287395       -5.3188924856       -7.4561234770
 H       -11.4712135841       -6.7084419967       -6.4630147654
 H       -12.3450688594       -5.9727269524       -5.2622913027
 H       -11.3403669111       -7.7751908115       -4.1865920503
 H       -10.5377471557       -6.2797568568       -3.5143090712
 H        -8.4887099412       -7.8886176201       -0.7131127080
 H        -9.4763840165       -6.7973478315       -1.6714508098
 H        -6.5934431509       -6.5061765384       -0.7022581502
 H        -7.8862957251       -5.3523499166       -0.3315914241
 H        -4.0146432932       -2.1169388682       -0.8142418750
 H        -5.1216751615       -3.2002059143        0.0788535515
 H        -5.9984966286       -0.4226755573       -0.6274281065
 H        -4.9714852472       -0.8199783683        0.7339398026
 H       -10.6821763306       -0.4906122526        1.3640515346
 H        -9.8448470743       -1.5987918472        0.3497343700
 H       -10.9962558228        1.0571294163       -0.7317386350
 H       -11.8723673126       -0.4538024640       -0.7241555322
 H       -11.8732947961        1.1907879445       -5.8717749788
 H       -11.6585536100       -0.4355778129       -6.3738854608
 H       -10.8639335058        0.5503626033       -8.2714763462
 H        -9.4317662584       -0.0368760313       -7.3316786074
 H        -8.4748460011        2.8837788689      -11.5591767588
 H        -9.7052289432        3.9501668379      -11.2133494401
 H       -10.0878315487        2.4056928452      -11.7978082577
 H       -10.9613567466        4.4675912126       -7.9918888633
 H       -11.7650331742        2.8702004654       -8.3391824912
 H       -11.1403229205        3.8981547958       -9.6873399583
 H        -7.5434425968        3.4408117883       -8.0991435162
 H        -8.8015238481        4.4252173057       -7.4186281121
 H        -8.4406099290        4.4693022070       -9.3278508069
 H       -12.0882912337        1.9916642316       -3.9840635738
 H       -12.2280936778        1.7272928794       -2.2036869459
 H       -12.7936457710        0.3430203887       -3.2572978279
 H       -10.0464290251        2.5692246765       -3.8825772567
 H        -8.6033993523        1.7361928443       -3.4919822868
 H        -9.4230872311        2.2137469440       -2.1921691356
 H        -9.2349998798       -0.2110730470        3.2957869183
 H        -7.6520080675       -0.8004359273        3.7952239416
 H        -8.7207978822       -1.8926229146        2.7433402967
 H        -5.8759194953        0.5075257764        2.2773489109
 H        -7.2652266470        1.6652919952        2.3749532362
 H        -6.4521478339        1.1895683195        0.8784492581
 H        -4.6744728993       -6.2222017128       -1.7659594674
 H        -4.5884672453       -4.9603481567       -0.6204308811
 H        -3.6018918516       -5.0280013583       -2.1783696659
 H        -4.1077960944       -3.9314606367       -3.8118594422
 H        -5.7108332200       -3.5724300347       -4.5596292547
 H        -5.1157089801       -5.2057847524       -4.2730061373
 H       -10.3407323621       -8.5645804824       -2.1311654963
 H        -9.4436823160      -10.0461454197       -2.0199366891
 H       -10.5655968042       -9.8313590791       -3.4033934549
 H        -7.0993965353       -9.2585205823       -4.9449048099
 H        -8.4343870379      -10.3160934632       -5.1877497110
 H        -7.3349044458      -10.5123670923       -3.6959523145
 H       -11.8639238726       -2.6770655938       -8.2615183980
 H       -11.5297456332       -2.3550954066       -6.6041127663
 H       -12.7397695202       -3.5143874778       -6.8829548572
 H       -11.7031777707       -5.5686478557       -8.6562861359
 H        -9.9707049485       -5.7591682389       -8.5417787431
 H       -10.7826878898       -4.3445601362       -9.3624456614
 H        -6.6990301361        0.5022108579       -7.7444181059
 H        -4.9526270472        0.5438072161       -8.2928896660
 H        -5.3532097590        0.3015975339       -6.5750885615
 H        -5.4258240420       -1.1765553894      -10.3282186142
 H        -6.9290267090       -0.7664259416       -9.4781477055
 H        -6.5929122253       -2.4479742286       -9.7918814202
 H        -0.3887667625       -4.4979661431       -8.2236852266
 H         0.3851247676       -5.4842848484       -9.3975479271
 H        -1.3511570451       -4.9565389004       -9.5572399308
 H         1.1270335198       -2.4059011136       -8.5073757914
 H         1.7501866603       -2.0933526370       -9.9882205361
 H         2.0350058733       -3.6975824724       -9.1972581205
 H         1.3523630026        0.1297437465      -15.8903213299
 H         0.2590650252       -1.1157951268      -16.6201665882
 H         1.7614490175       -0.4949211046      -17.4094535873
 H         2.2739766945       -4.0790607654      -16.0345072971
 H         0.9605402530       -3.4416640782      -16.9511764787
 H         0.7172866729       -3.6327353718      -15.1624420131
 H         6.5747353216       -3.6336758045      -19.9374737197
 H         5.0072397232       -2.6940040240      -19.6773521945
 H         5.8939205859       -3.3590132102      -18.2319294828
 H         8.8361485848       -2.5088984647      -19.1138728343
 H         8.2512840914       -1.8211323876      -17.5237330009
 H         8.9139561713       -0.7833577080      -18.8401307310
 H         6.8382107226        0.8021472441      -25.5468817954
 H         8.4562730588        0.9098823078      -25.4459284736
 H         7.2731074106        2.3590258659      -25.8798094272
 H         8.1825956369        3.7759375056      -24.4544836001
 H         9.4103809504        2.8390042752      -23.6603707231
 H         8.2331206445        3.9174896540      -22.7243041559
 H         1.7124990554        4.0269124217      -18.9316123286
 H         3.4414293945        4.1185708196      -18.7843340967
 H         2.7706052184        2.5675153421      -19.2796724371
 H         0.8004041676        2.7810187029      -20.6632250887
 H         1.9097275803        2.2208319884      -21.7184594105
 H         0.9693860102        3.5316101561      -22.4098266166
 Na       -8.4942531519       -2.7318478365       -4.1537872616
 Na        5.4285288083        1.4616594770      -20.7033543583
