232

 C         2.4825692768        6.5223509039      -20.1492399355
 C         1.9919161861        5.5104814962      -21.1905084666
 O         1.4706206963        6.0131438240      -22.1611138922
 C         2.3249566437        4.0022306512      -21.1808545039
 C         3.7734746275        3.9227351868      -21.7230687477
 O         4.7197026113        3.6833998938      -20.9605171721
 C         4.0266960441        4.0210260612      -23.3107982881
 C         5.4918630685        3.9342005085      -23.6201736509
 C         5.9947926018        2.4817909866      -23.5702940540
 O         5.2463598686        1.5272770459      -23.3068888363
 C         7.5990241848        2.1721131379      -23.7329682074
 C         7.8803887504        1.1732298215      -22.4787710517
 O         7.8955624805        1.6271905059      -21.3845630985
 C         8.2651575968       -0.3933991752      -22.7951493584
 C         8.1571262572       -1.0526172289      -21.4708893315
 C         6.7217756076       -1.2699281331      -20.8370498128
 O         5.7193499926       -1.0944133734      -21.5299499974
 C         6.5810455532       -1.8178674781      -19.4017760104
 C         5.8031620691       -0.6995493573      -18.5856004124
 O         5.3856429199        0.4322511642      -18.9479075279
 C         5.7291489947       -0.9656107675      -17.1037302953
 C         4.3346677319       -0.4932257844      -16.4571386684
 C         3.4584499639       -1.7111890733      -16.2138905967
 O         3.9413922619       -2.8301399023      -16.3294895215
 C         1.9889523785       -1.5268347285      -15.7739508238
 C         2.2318101420       -1.5253338903      -14.1645814968
 O         2.4583395265       -0.5137485176      -13.5738042663
 C         2.0035604877       -2.7951561644      -13.2441351904
 C         0.6108162722       -2.6867213557      -12.6979924733
 C         0.4001351966       -3.8021734812      -11.6099065693
 O         0.4057098333       -4.9408532958      -11.9914374282
 C         0.1237850695       -3.3807672930      -10.1489623305
 C        -1.0655263291       -2.1644130535      -10.0282062629
 O        -1.5757004641       -1.7132931425      -11.0277315457
 C        -1.5279850254       -1.7607347328       -8.6628434345
 C        -2.9340416782       -1.2804570900       -8.6053498059
 C        -3.9193841515       -2.0682942186       -7.7026919306
 O        -3.6221700283       -3.0797113603       -7.1767592987
 C        -5.5604576401       -1.6097264017       -7.7716543361
 C        -6.4841457151       -2.5998126412       -6.9231721055
 O        -6.5674440996       -2.3639094851       -5.6844690889
 C        -7.0246961214       -3.9314148378       -7.5402241297
 C        -8.3170277115       -4.5281951600       -6.9175755704
 C        -9.5049374041       -3.5891920443       -7.1489001970
 O        -9.3290424102       -2.4173148154       -7.3653466928
 C       -10.8884657319       -4.2208861672       -7.0042393369
 C       -10.8689784366       -4.8320447500       -5.5203855438
 O       -10.3000900835       -4.1779658066       -4.6790031018
 C       -11.4558543297       -6.1696101640       -5.1119941497
 C       -10.5709899354       -6.8165976129       -4.0471300063
 C        -9.3829825424       -7.6850215281       -4.6177831656
 O        -9.0864354017       -7.4877754178       -5.7618795672
 C        -8.5916935819       -8.6364203621       -3.6022092987
 C        -7.8060722880       -7.8821952415       -2.5067876061
 O        -6.5947209684       -7.7775296851       -2.5169967378
 C        -8.5097597862       -7.2479240915       -1.2829249711
 C        -7.5504156887       -5.9937881868       -0.8158599603
 C        -7.2202688069       -5.0865228045       -2.0851956915
 O        -8.1705168744       -4.6482699306       -2.6904431719
 C        -5.8812347454       -4.4331099717       -2.4135630367
 C        -5.9079964310       -2.8915982009       -2.0046543570
 O        -6.5020022200       -2.0589412264       -2.6167518952
 C        -5.0814633082       -2.3669646332       -0.7805511091
 C        -5.7956758742       -1.1794482647       -0.0753878216
 C        -6.9437573757       -1.5009078753        0.9240019005
 O        -7.3587734288       -2.6020337614        1.1687323481
 C        -7.5574157803       -0.2463309973        1.6567744616
 C        -8.5858209224        0.1438454552        0.4892095843
 O        -8.4328185432        1.1707282640       -0.1179386580
 C        -9.7928490072       -0.7396749703        0.2064553003
 C       -10.7557288012       -0.3663241142       -0.8818889345
 C       -10.3021223075       -0.7199448110       -2.3360007359
 O        -9.4613772899       -1.5685774634       -2.4769563800
 C       -10.7799739713        0.4344093993       -3.2891813596
 C       -10.4112164069        0.0415760967       -4.8310444870
 O        -9.5037110234       -0.6988858036       -5.1907046306
 C       -11.1827945450        0.8519330879       -5.9379742577
 C       -10.5133219130        0.7011324734       -7.2750121358
 C        -9.4217308734        1.9467619262       -7.3357754869
 O        -8.3411150869        1.8932829239       -6.7885123325
 C        -9.7805202761        2.9782401294       -8.4366837704
 C        -9.4794984190        2.1572687782       -9.6554785248
 O        -8.6594811545        1.1875921975       -9.5345159066
 C       -10.0175258519        2.5165296290      -11.0119110543
 C       -11.2522243441        3.5500830871       -8.3407771574
 C        -8.7737737387        4.2046162168       -8.4331006690
 C       -12.1886019974        0.9898027607       -2.9712705608
 C        -9.7339738922        1.5581907716       -2.9805455417
 C        -8.2506988645       -0.7680341573        2.9162296832
 C        -6.6418361478        1.0182878969        1.9096068079
 C        -4.6688722837       -5.1255936622       -1.7338281107
 C        -5.6381478504       -4.6476879687       -3.8927079538
 C        -9.6812011583       -9.5364182202       -2.7953938194
 C        -7.5655481802       -9.2312246507       -4.5846093827
 C       -11.8935753902       -3.0495434951       -7.0198426569
 C       -11.3063004514       -5.1227305672       -8.1241701888
 C        -5.6435970656       -0.1752119775       -7.3788348745
 C        -5.9167962129       -1.6681047716       -9.3122197204
 C        -0.3109235377       -4.5929907862       -9.3600336327
 C         1.4058960761       -2.7210170267       -9.5134648494
 C         1.4612958082       -0.1581655176      -16.2099246964
 C         1.1076985588       -2.6607221500      -16.2823504771
 C         5.7389456030       -3.1429257486      -19.3654292870
 C         7.9312812675       -1.8551018856      -18.7508654540
 C         7.8818707520        1.6877644870      -25.1462596626
 C         8.3916658785        3.5031146905      -23.5737566202
 C         2.3581107773        3.3593079956      -19.7130441560
 C         1.2217769312        3.3475637005      -21.9787451799
 H         2.0264628455        7.5086239916      -20.1930629269
 H         3.5878185446        6.7378323510      -20.0881787675
 H         2.2284761115        6.1698290201      -19.1533002040
 H         3.5880358150        4.9315489459      -23.8202728238
 H         3.5588900882        3.0710494406      -23.5827859947
 H         6.1944906863        4.4877377638      -23.0154418481
 H         5.6795293005        4.1656437950      -24.6337879014
 H         9.2885424830       -0.4735392963      -23.2319899701
 H         7.5593058780       -0.7967444543      -23.6818633054
 H         8.7974566240       -0.6169986946      -20.7759329556
 H         8.6152113585       -2.0945921321      -21.5989923808
 H         6.3806431067       -0.3081484415      -16.5846153484
 H         5.9434146476       -1.9953950163      -16.7119322879
 H         3.8645295830        0.3084473042      -17.1041585537
 H         4.4920626823       -0.0231703642      -15.4320817828
 H         2.6864195697       -2.7109759047      -12.3604594924
 H         2.1810548184       -3.7304874470      -13.7849916647
 H        -0.1506901105       -2.8720952904      -13.4620498334
 H         0.3437593808       -1.7138572888      -12.2314163031
 H        -0.8296167870       -1.0499174601       -8.2243287998
 H        -1.3505855117       -2.6293939409       -8.0233696483
 H        -3.3738459985       -1.4720825355       -9.6089572597
 H        -2.9771346374       -0.2732549607       -8.2436873834
 H        -6.1559477033       -4.6127978805       -7.5493445088
 H        -7.1378171043       -3.8031186874       -8.5982919804
 H        -8.2233483165       -4.7703384392       -5.9315676717
 H        -8.4653996686       -5.4505362234       -7.3591946606
 H       -11.7207447371       -6.7496093742       -6.0129520020
 H       -12.4279760773       -5.9754352166       -4.6252226104
 H       -11.2763277517       -7.4959546908       -3.4628484269
 H       -10.2427109830       -6.0293825906       -3.3827116471
 H        -8.7246673093       -7.9966978034       -0.5675275742
 H        -9.4869303647       -6.8489642579       -1.5946041301
 H        -6.7307622782       -6.3595801028       -0.2730979949
 H        -8.0833525513       -5.3678422119       -0.0749086947
 H        -4.0933574236       -1.9597115557       -1.2787433589
 H        -4.8624814154       -3.1099362318       -0.0400804786
 H        -6.0790501352       -0.4957492815       -0.8485764861
 H        -5.1163531142       -0.7206680572        0.6369967414
 H       -10.3200519219       -0.8719750766        1.1284044982
 H        -9.4246223688       -1.7528274001       -0.0965404333
 H       -11.0420433193        0.6465791718       -0.6985528351
 H       -11.6506905557       -0.8845491001       -0.5727900035
 H       -11.2570086165        1.8994488639       -5.6391505597
 H       -12.1685584067        0.3900207183       -5.9129370986
 H       -11.0260688723        0.6117511440       -8.2294524316
 H        -9.9037561588       -0.2031624692       -7.2700596058
 H        -9.2319157987        3.0216996659      -11.5413553286
 H       -10.8812714853        3.2687762827      -11.0622859085
 H       -10.3748914290        1.7083264592      -11.6337807116
 H       -11.5024927125        3.7582067396       -7.2841614114
 H       -11.8014392658        2.7845362556       -8.7989480656
 H       -11.2508042753        4.5662412763       -8.8574885701
 H        -7.7467465583        3.8513512955       -8.7309918851
 H        -8.9306144124        4.6530430390       -7.4421741761
 H        -9.0896595409        4.9500648163       -9.1648572136
 H       -12.4609006313        1.7825506354       -3.6409586959
 H       -12.1302253544        1.3661752536       -1.9421511792
 H       -12.8516284363        0.1530181639       -3.1918816564
 H        -9.5385469603        2.1852895678       -3.8445427022
 H        -8.6839397653        1.2372942849       -2.8750626180
 H        -9.9751917802        2.1802861353       -2.0671570721
 H        -8.8730184421       -0.0543213702        3.4325310576
 H        -7.5823450493       -1.2192256552        3.6051220340
 H        -8.7857555037       -1.6915528248        2.5367831820
 H        -5.8835238091        0.7488844235        2.6396221654
 H        -7.2504732584        1.8821942527        2.1798216341
 H        -6.1945461168        1.2520577369        0.9926717389
 H        -4.6668428487       -6.1562593648       -2.0476485256
 H        -4.8725294336       -5.1244286444       -0.6871454093
 H        -3.6857159555       -4.6476743539       -2.0005834076
 H        -5.2769521653       -3.7618759545       -4.4462791432
 H        -6.4756532981       -5.0593455121       -4.4025221294
 H        -4.8308263504       -5.3299113745       -4.0328009200
 H       -10.3693001950       -9.0197165403       -2.1438139468
 H        -9.1661781131      -10.3542353308       -2.2757401538
 H       -10.2038676658      -10.0317270394       -3.5715552762
 H        -6.9399422834       -8.4919879112       -5.0916945996
 H        -8.1032689573       -9.8175116099       -5.3015479890
 H        -6.7883138208       -9.8153708029       -4.1081764489
 H       -11.6089780041       -2.4248708239       -7.8531924595
 H       -11.8887089366       -2.5130017915       -6.0699457749
 H       -12.8929740794       -3.5014219935       -7.1044822549
 H       -12.2572402932       -5.6775213367       -7.8762343512
 H       -10.5575997217       -5.9343808436       -8.3428070604
 H       -11.4162166302       -4.6045407770       -9.0749384157
 H        -6.5638726604        0.3454140374       -7.6366649937
 H        -4.7968289653        0.2204426617       -7.9524600458
 H        -5.4536159579       -0.0579507631       -6.3392701099
 H        -6.1279942375       -0.6801714308       -9.6129460357
 H        -6.7980166805       -2.2569690907       -9.5768503700
 H        -5.1067063061       -2.1816478069       -9.8007198887
 H         0.1078088621       -4.5887516958       -8.3949150236
 H         0.2476035174       -5.4744161671       -9.7520646956
 H        -1.4398470636       -4.8181659513       -9.3503437321
 H         1.4758220014       -3.0146418273       -8.4813071055
 H         1.4260986059       -1.6996294134       -9.5558259147
 H         2.2901777445       -3.2231929390       -9.9835778959
 H         2.1645159823        0.6850381333      -16.3521064580
 H         0.6838977877        0.1788996677      -15.6355691178
 H         1.0880161890       -0.1153015700      -17.2292578239
 H         1.4791657249       -3.6195520247      -15.9141115209
 H         1.0284363092       -2.5644330784      -17.3633651716
 H         0.1049405734       -2.4443676485      -15.9390759831
 H         6.4420419587       -3.8409124249      -19.7833735745
 H         4.8747909648       -2.9414865415      -19.9399869433
 H         5.3768654878       -3.4297345271      -18.3739095079
 H         8.6296346637       -2.5572620577      -19.1485677271
 H         7.7898158341       -2.2385229287      -17.6980101647
 H         8.3108771846       -0.8543728265      -18.6639549806
 H         7.1361569402        0.8924630197      -25.3605657409
 H         8.8881329223        1.2325828130      -25.3545649859
 H         7.6930039219        2.4661697396      -25.8626814569
 H         7.9348635910        4.2126193840      -24.1506124541
 H         9.3791425141        3.1279121575      -23.7262992431
 H         8.3852741220        3.8361975443      -22.5059532765
 H         1.5146400891        3.7433420616      -19.2001503474
 H         3.0846428236        3.8577356094      -19.1511552305
 H         2.4161111033        2.2655560747      -19.5679964149
 H         0.2218642667        3.6173576861      -21.5796095882
 H         1.3374542409        2.2887669131      -21.9900779380
 H         1.2604120208        3.7538021345      -23.0331536088
 Na       -8.2978600794       -2.5628676050       -4.2621223932
 Na        5.5550886148        1.3355640530      -21.0172675171
