232

 C         2.4616005167        6.4271487100      -20.0597586108
 C         2.0150501112        5.6133090233      -21.2354185375
 O         1.5913526435        6.0966137469      -22.2451194807
 C         2.2910429930        3.9802921964      -21.2605110372
 C         3.7050264524        3.7721254832      -21.8348138024
 O         4.6747427488        3.7097734765      -21.0405804778
 C         3.9812773461        4.0312685574      -23.3158761666
 C         5.5274463568        3.9751634759      -23.5752499561
 C         6.0973602473        2.4930362584      -23.6166414314
 O         5.3472240512        1.5546731438      -23.4662270719
 C         7.6074956928        2.2388299227      -23.7705241697
 C         7.9385223341        1.2885793752      -22.5486171217
 O         7.9980557898        1.7388186626      -21.4045671233
 C         8.1627958899       -0.2061742933      -22.7058902894
 C         8.1832203095       -1.1163696981      -21.4630981462
 C         6.7046857043       -1.3432056838      -20.9418387041
 O         5.8002592147       -1.1440639585      -21.6722783697
 C         6.5726169737       -1.8012323629      -19.3881269666
 C         5.8097059475       -0.7301443231      -18.5155735481
 O         5.4655288067        0.3080716375      -19.0517313813
 C         5.7056157366       -0.9621722211      -17.0507553945
 C         4.4237675103       -0.4401320274      -16.3927801409
 C         3.4761999908       -1.6113588566      -16.3374646265
 O         3.8126282307       -2.7906641804      -16.4217593707
 C         1.9780509853       -1.4062542086      -15.7563104964
 C         2.1812686263       -1.4598980535      -14.2175080799
 O         2.5362272866       -0.4183773146      -13.6510371750
 C         2.0146211749       -2.8016925080      -13.3815347581
 C         0.6621884792       -2.6827625012      -12.7480148458
 C         0.3409576026       -3.7282504755      -11.6628687382
 O         0.3707739687       -4.9235486638      -11.9248569662
 C         0.1107296453       -3.3430141038      -10.1398294394
 C        -1.0416976868       -2.2896423105      -10.0624623458
 O        -1.5568641559       -1.8805174528      -11.1003617054
 C        -1.5012764226       -1.8478131695       -8.6683411981
 C        -2.9125087883       -1.1962609879       -8.6221953791
 C        -3.9796812916       -2.1762923685       -7.8829090057
 O        -3.5939895313       -3.0542822985       -7.0856310530
 C        -5.4322273410       -1.7382406898       -7.8428791846
 C        -6.3497295944       -2.6728648241       -6.8593511869
 O        -6.6386422489       -2.3186288988       -5.7721233831
 C        -6.9839527652       -3.8852251155       -7.5160644171
 C        -8.2170571018       -4.5451733658       -6.8461824134
 C        -9.4305705818       -3.6042225266       -7.0908887945
 O        -9.2690169511       -2.4387539766       -7.4572470566
 C       -10.9616772244       -4.2379076509       -6.9002702314
 C       -10.8890755462       -4.9056336422       -5.5130360768
 O       -10.2144280893       -4.1975102187       -4.7112201675
 C       -11.5629140667       -6.2236490429       -4.9225009640
 C       -10.5997880727       -6.7799260708       -3.8297122288
 C        -9.4797973656       -7.5718832917       -4.4834499930
 O        -9.1803625324       -7.4452495011       -5.6578225300
 C        -8.6287878161       -8.6345022481       -3.6099553630
 C        -7.7421899436       -7.8777508427       -2.4838588258
 O        -6.5469982031       -7.8255249569       -2.6199211830
 C        -8.4653976285       -7.1283765915       -1.2933858515
 C        -7.5904320730       -5.9101737566       -0.7935735318
 C        -7.3585592208       -4.9510276517       -1.9171553236
 O        -8.2712387623       -4.5928701785       -2.6655289522
 C        -5.8642404250       -4.4417157577       -2.3072716427
 C        -5.9132513194       -2.8552117753       -2.0194986198
 O        -6.4668767804       -2.0815315729       -2.8229456028
 C        -5.1689803376       -2.3690098507       -0.7806161721
 C        -5.6255993176       -1.1017874097        0.0520536100
 C        -6.8128495506       -1.4925935562        0.9640372983
 O        -7.1990322052       -2.6369064598        1.0626757142
 C        -7.6014234981       -0.3447918888        1.5726257361
 C        -8.6562079385        0.1866534174        0.4886542142
 O        -8.3991253082        1.1820418389       -0.1634809791
 C        -9.7757002188       -0.8844913388        0.3026650289
 C       -10.7669729437       -0.4991613164       -0.7900876139
 C       -10.2398051213       -0.6432299664       -2.2491145822
 O        -9.5718956599       -1.6097131608       -2.5581621315
 C       -10.7003010956        0.4447309123       -3.2740856335
 C       -10.4845116087        0.1214494545       -4.7941365012
 O        -9.6256313566       -0.6325302352       -5.1528154172
 C       -11.2930228341        0.8378496029       -5.9144259808
 C       -10.3991568249        0.8091040068       -7.1503910273
 C        -9.3746808206        1.8923717911       -7.3690315521
 O        -8.2712739110        1.9035278249       -6.9375672300
 C        -9.7664646843        2.9357146665       -8.4620585347
 C        -9.4492296449        2.1578191229       -9.7915241131
 O        -8.6983860413        1.2423473830       -9.6909427180
 C       -10.1638753063        2.5453073285      -11.0168039480
 C       -11.2580276285        3.4204680231       -8.2668410220
 C        -8.7079334778        4.1985903272       -8.4165560924
 C       -12.1621675402        0.7861595799       -3.0420059590
 C        -9.6898343053        1.5697038670       -2.9715926439
 C        -8.1535810255       -0.7381743297        2.9796166406
 C        -6.6694618075        0.8543386553        1.8348114158
 C        -4.6720903022       -5.1853036214       -1.5409452531
 C        -5.6665873652       -4.6669380188       -3.9356306099
 C        -9.5650626299       -9.6850862683       -3.0265479932
 C        -7.5539757352       -9.2367087047       -4.4565764457
 C       -11.9574504658       -2.9468027619       -6.7380883065
 C       -11.2854778092       -5.1791473163       -8.1120412174
 C        -5.6540709704       -0.2556540394       -7.1984364661
 C        -6.0736506660       -1.7344635038       -9.2895486411
 C        -0.4012644902       -4.5121612463       -9.2442041390
 C         1.4856457729       -2.7571977898       -9.5269820479
 C         1.3605126579       -0.0136172640      -16.0660099950
 C         1.0562895708       -2.5180169819      -16.2841760239
 C         5.7291976915       -3.0913313841      -19.3948066556
 C         7.9390519940       -2.0679614175      -18.6543060643
 C         7.7873677838        1.6416918826      -25.0955655676
 C         8.4092989633        3.5618564065      -23.4512179489
 C         2.2702589552        3.4544113402      -19.7532408677
 C         1.2304955338        3.2196755574      -22.1471495907
 H         1.8438966613        7.2047770350      -19.6015498342
 H         3.4102875056        6.9723042662      -20.3092036466
 H         2.7491286534        5.7381109333      -19.2123179661
 H         3.7546087300        5.1094402041      -23.4218921732
 H         3.2929886357        3.3838200749      -23.8836342113
 H         6.0504707588        4.4354432950      -22.8203386944
 H         5.8293464901        4.4235813738      -24.5479371803
 H         9.1314704886       -0.2280339976      -23.2400275980
 H         7.4999283163       -0.4953550059      -23.4578064479
 H         8.7760744640       -0.6692283883      -20.5781913971
 H         8.7164726592       -2.0010121668      -21.6826420013
 H         6.4988540620       -0.5091722878      -16.4404713198
 H         5.7316263261       -2.0872384128      -16.8409393828
 H         3.9615855604        0.2969495580      -17.1364189043
 H         4.4594042142        0.0612260290      -15.3815702689
 H         2.8078611451       -2.8662149188      -12.5874851666
 H         2.1111821204       -3.6643644695      -14.1357083912
 H        -0.1394628767       -2.7367697301      -13.5280716661
 H         0.5242741208       -1.7491743036      -12.2349121566
 H        -0.7685187887       -1.0902050356       -8.4555237163
 H        -1.2795320314       -2.5244628730       -7.8970062294
 H        -3.2685369796       -1.1103495962       -9.6119246199
 H        -2.8817054566       -0.2909795099       -7.9831059202
 H        -6.1943768501       -4.5943536845       -7.7308060100
 H        -7.1892440487       -3.5857735589       -8.5428409589
 H        -8.0537698405       -4.5747722236       -5.8142359779
 H        -8.2908111301       -5.5879527008       -7.1084119167
 H       -11.8569849229       -6.9313240461       -5.7039373125
 H       -12.4607757476       -5.8946104942       -4.4836902821
 H       -11.1472141513       -7.4222834596       -3.1417420550
 H       -10.1409981345       -5.9548412992       -3.2487020438
 H        -8.5487145753       -7.8396802501       -0.4570542597
 H        -9.4870663559       -6.8970998034       -1.5297502886
 H        -6.6984155263       -6.3721118964       -0.4325347391
 H        -7.9917620233       -5.4552314054        0.1446753232
 H        -4.2133443022       -2.2584271447       -1.2173879454
 H        -5.1376711454       -3.2126149176       -0.0621620307
 H        -6.0547880263       -0.4204942548       -0.6009435743
 H        -4.8321278436       -0.6312133051        0.6849552968
 H       -10.3116248432       -0.9034925346        1.2830813148
 H        -9.3180715302       -1.8626187304        0.1343131388
 H       -11.0990586263        0.5160432137       -0.4668978459
 H       -11.7123805062       -1.0623956448       -0.6341234570
 H       -11.5956043665        1.8107793729       -5.6615423742
 H       -12.1222881796        0.2332564512       -6.1086505701
 H       -10.9146123266        0.8315115842       -8.1349244703
 H        -9.8669430231       -0.1737859565       -7.2959086721
 H        -9.6068593904        3.1666921540      -11.7274562585
 H       -11.0855410508        3.0954138232      -10.8014339412
 H       -10.4955183220        1.6968948121      -11.5700020699
 H       -11.5638054311        3.3319823386       -7.2224840700
 H       -11.7793746686        2.7060309512       -8.8990725953
 H       -11.3269471328        4.4667487865       -8.5638746644
 H        -7.7164269318        3.6701791355       -8.4501102790
 H        -8.9464019862        4.9187671317       -7.5615732641
 H        -8.7884852890        4.7871844255       -9.3321574787
 H       -12.4826826289        1.4194913800       -3.8961264943
 H       -12.0747122387        1.4532535964       -2.1468081373
 H       -12.8166445916       -0.1026781217       -3.0781949950
 H        -9.4735577444        2.3301940623       -3.7715489144
 H        -8.6957807130        1.1671449661       -2.9840830642
 H        -9.8603529961        2.0838173666       -2.0324037832
 H        -8.6675354281        0.1429036865        3.4149212264
 H        -7.3157422032       -1.0849039893        3.6483688053
 H        -8.7654825985       -1.6579769969        2.9709492933
 H        -6.0621439347        0.5277505123        2.6140244536
 H        -7.2101205847        1.7638565830        2.1406335206
 H        -6.1098798104        1.1840784007        0.9628306676
 H        -4.9450516932       -6.2700400308       -1.7321960120
 H        -4.6409277259       -4.9682234919       -0.5031252766
 H        -3.7194040790       -4.9641982488       -1.9753860172
 H        -5.3028242491       -3.8166740230       -4.3995632993
 H        -6.6598286227       -4.8912640668       -4.3524698308
 H        -4.9851521144       -5.4930738844       -4.2921372344
 H       -10.1904629471       -9.2521807826       -2.2501853997
 H        -8.9335648444      -10.4653845813       -2.6508557994
 H       -10.2445310504      -10.2067304829       -3.7551321266
 H        -6.7859704416       -8.5556935839       -4.8755411706
 H        -7.9726890896       -9.8872202604       -5.2371483364
 H        -6.9230493480       -9.8649307787       -3.8281568219
 H       -11.8264068812       -2.4399585915       -7.6723609530
 H       -11.6473108222       -2.3189329686       -5.8886265489
 H       -12.9531404601       -3.2606501295       -6.5874314613
 H       -12.1635606032       -5.8357911412       -7.8775815701
 H       -10.4915122587       -5.8341090609       -8.3879376699
 H       -11.4870907869       -4.6519524500       -9.0766418561
 H        -6.6455792668        0.1704766167       -7.4570154822
 H        -4.8534915434        0.3670849813       -7.6538213824
 H        -5.5221995831       -0.3353715568       -6.1412600921
 H        -5.8666802356       -0.7889250878       -9.7348349676
 H        -7.1653146713       -1.6977104399       -9.0420625584
 H        -5.9239902385       -2.6362496990       -9.8326609862
 H        -0.1228909041       -4.3968479779       -8.1770847444
 H         0.2283439487       -5.4123641966       -9.4784059620
 H        -1.3871424814       -4.7370850280       -9.4052117458
 H         1.5909596869       -2.9434594259       -8.5209988585
 H         1.6039027701       -1.6688915340       -9.7302421490
 H         2.2506281964       -3.2452894358      -10.0291847859
 H         1.8811729040        0.8902046986      -15.7647326878
 H         0.3160616435        0.0947282998      -15.7056628677
 H         1.2890126325        0.2848543818      -17.1604254806
 H         1.5172080201       -3.5144215863      -16.2007080958
 H         0.8521707151       -2.1515156519      -17.2775534689
 H         0.0722717470       -2.4751797409      -15.8084703369
 H         6.3798182382       -3.8364692225      -19.8073160787
 H         4.8273111226       -2.8556429143      -19.9302040635
 H         5.3470775187       -3.3602913095      -18.3302428583
 H         8.5104159189       -2.9086882478      -19.0939295141
 H         7.7777771506       -2.4081933385      -17.6933428079
 H         8.5712164688       -1.1464893620      -18.5799869762
 H         7.1068284824        0.6533761335      -25.2293132259
 H         8.8268136851        1.2115369997      -25.0686203516
 H         7.7723632301        2.2554436407      -25.9581374254
 H         8.1865850143        4.2597255429      -24.2207772071
 H         9.3798649980        3.2212811080      -23.2946704335
 H         8.1344450197        3.9433293800      -22.5073917979
 H         1.3942412848        3.8303153300      -19.2019733135
 H         3.0560747092        3.8508795586      -19.1206150676
 H         2.2151184256        2.3588378177      -19.7105988825
 H         0.2339157705        3.1822876573      -21.8276504954
 H         1.6809762511        2.2030884184      -22.3739678868
 H         1.2280508659        3.7763586771      -23.1110995381
 Na       -8.3978587566       -2.5983626414       -4.2582813692
 Na        5.4683838450        1.4011283824      -21.0203114758
