232

 C         2.4869885522        6.2805386016      -20.0298394741
 C         2.1217134712        5.6047033873      -21.3480587795
 O         1.6894035147        6.1549497910      -22.3236346864
 C         2.2915421087        3.9843232039      -21.3462527932
 C         3.6933130916        3.8396872041      -21.8125786261
 O         4.6172561422        3.5389685825      -21.0845545216
 C         3.9711785895        4.0708005861      -23.2987962080
 C         5.4833593617        4.0398356097      -23.5960994768
 C         6.0586261276        2.5349905319      -23.5515386812
 O         5.3287887321        1.5941900629      -23.6019943646
 C         7.6318444638        2.2575950085      -23.6620461370
 C         7.9765111971        1.3762988487      -22.4907499532
 O         7.9946228700        1.8723291519      -21.3093426896
 C         8.1271137177       -0.1904418218      -22.7918419334
 C         8.2116269643       -1.0134246884      -21.5047414114
 C         6.8644176245       -1.2853861825      -20.9172894600
 O         5.8423687261       -1.1856560993      -21.5925625265
 C         6.6291346812       -1.8294628504      -19.4801161355
 C         5.9315758110       -0.6917776667      -18.5384312509
 O         5.4249537008        0.2573234210      -19.0471898897
 C         5.7961648982       -0.8856011607      -17.0513401151
 C         4.4396892609       -0.4593854499      -16.4341943628
 C         3.3459407085       -1.5744719785      -16.3209804758
 O         3.6742940539       -2.6844002590      -16.5879100508
 C         1.8816435463       -1.2827531826      -15.7875736594
 C         2.2232833971       -1.3699687685      -14.2092206731
 O         2.6368822519       -0.3921808283      -13.6420624550
 C         1.9648360946       -2.6927589802      -13.5516380335
 C         0.6396720350       -2.6094168189      -12.6283879560
 C         0.3897545356       -3.7977072257      -11.5947178162
 O         0.3281309822       -4.9517557265      -11.8975165125
 C         0.1334204304       -3.3426652039      -10.1156313214
 C        -1.0270546502       -2.3061270672      -10.0922621896
 O        -1.6163187885       -2.0344053527      -11.1140914258
 C        -1.5033802649       -1.8230474299       -8.6532124403
 C        -3.0028078079       -1.2185720023       -8.6174076679
 C        -3.9968738610       -2.1592925000       -7.7952818097
 O        -3.5018429254       -3.0451098847       -7.1376652038
 C        -5.5322800111       -1.7307722776       -7.8673190300
 C        -6.4030161625       -2.6481054823       -6.9956062326
 O        -6.6407454899       -2.3006720942       -5.8782623355
 C        -6.8987578950       -4.0659727261       -7.5641952508
 C        -8.1565482824       -4.4703078307       -6.8124587822
 C        -9.4034727325       -3.6339257592       -7.0988572054
 O        -9.3463057539       -2.5267740425       -7.5618331946
 C       -10.8983242187       -4.2171957052       -6.8014646972
 C       -10.8247004572       -4.8192004376       -5.3798105610
 O       -10.1457082386       -4.2869566849       -4.5204147290
 C       -11.5450882389       -6.0850475247       -4.8809776361
 C       -10.7067902884       -6.7607036235       -3.6983329676
 C        -9.5073359975       -7.4846123089       -4.3426688277
 O        -9.2893232694       -7.3658851748       -5.5466311681
 C        -8.5403761833       -8.6000301906       -3.5434509460
 C        -7.7690642012       -7.7446786820       -2.4815091297
 O        -6.5564197333       -7.8099261790       -2.6120822417
 C        -8.3509936898       -7.0381471702       -1.2736532489
 C        -7.5484083729       -5.8916863733       -0.8452685084
 C        -7.3845203049       -4.8769937174       -1.9188267708
 O        -8.3475283923       -4.4901387200       -2.5680969727
 C        -5.9356220666       -4.4075655446       -2.2162710452
 C        -5.8260429051       -2.8405684420       -2.0399453966
 O        -6.4447552606       -2.1848243005       -2.8657416859
 C        -5.0868760638       -2.4380271970       -0.7676581973
 C        -5.5506231084       -1.1774637676       -0.0741857962
 C        -6.7279830532       -1.5084513818        0.8408899676
 O        -7.0364112245       -2.6913435702        0.9875067096
 C        -7.4831409690       -0.2995495879        1.6220664909
 C        -8.5942838947        0.0374326724        0.5979920426
 O        -8.5710105472        0.9846834560       -0.1601204698
 C        -9.7645101925       -0.9466245755        0.3493687176
 C       -10.8394324500       -0.5382737029       -0.8108572243
 C       -10.2883435025       -0.6641390658       -2.1743611851
 O        -9.6747099126       -1.6841151807       -2.4934169009
 C       -10.5958151679        0.5236977964       -3.2393116501
 C       -10.4132049930        0.0766399643       -4.7312377531
 O        -9.6224654089       -0.7875894208       -5.0080717739
 C       -11.2475752650        0.7953839054       -5.8323098308
 C       -10.4175952255        0.8207379207       -7.1737704162
 C        -9.2788709886        1.9243486268       -7.3996177140
 O        -8.1850161573        1.8502430247       -6.8536274879
 C        -9.6850382846        2.9422115952       -8.4805892953
 C        -9.5285787503        2.1489701515       -9.9149496193
 O        -8.7199355736        1.2956355873      -10.0097260488
 C       -10.3520573627        2.5925196521      -11.1347658574
 C       -11.1986216225        3.4035428576       -8.2798665545
 C        -8.7694594755        4.1758430677       -8.3733915833
 C       -12.2648998810        0.7446515871       -3.0484296130
 C        -9.6704591379        1.7407684784       -2.9983261225
 C        -8.1692272225       -0.7230240748        2.9460267975
 C        -6.5313201108        0.9355904822        1.8642473777
 C        -4.8848365119       -5.1907155933       -1.4975510548
 C        -5.6985187630       -4.6526297175       -3.7256593923
 C        -9.4396841827       -9.7546466339       -3.1661746532
 C        -7.5408155876       -9.3849819782       -4.5262338586
 C       -11.8889538533       -3.0872708776       -6.5881481027
 C       -11.2798539436       -5.1350789366       -7.9333089902
 C        -5.5754890707       -0.3678226499       -7.0919023466
 C        -6.1796769959       -1.6576413875       -9.2844447878
 C        -0.3422565926       -4.5258810087       -9.2687043532
 C         1.4414608875       -2.7616597046       -9.6256992559
 C         1.3398266190        0.1075310532      -15.9849062754
 C         0.9602170621       -2.3970551845      -16.2999884368
 C         5.6616923498       -3.1161011807      -19.4750668243
 C         7.9359981885       -2.3342681657      -18.6902166143
 C         7.8382756509        1.5637504656      -25.0740607478
 C         8.5342590908        3.6418476623      -23.4413310018
 C         2.0954267117        3.4573770784      -19.9186036407
 C         1.3200998491        3.2185711826      -22.2329130639
 H         1.5297099742        6.5254259977      -19.4893388695
 H         2.8210471625        7.2704189834      -20.2761974182
 H         3.1761131173        5.8533036117      -19.2849905070
 H         3.6610669093        5.0622929591      -23.5900923594
 H         3.3347704122        3.3023349998      -23.7778812732
 H         6.0744435492        4.5970836517      -22.8449572605
 H         5.7264391920        4.4052632752      -24.6248644971
 H         8.9664686360       -0.2279160188      -23.4531912179
 H         7.3234281300       -0.3863136187      -23.3847280748
 H         8.8844975388       -0.5409724927      -20.7189828656
 H         8.6572088537       -1.9737308510      -21.6162033492
 H         6.5032003660       -0.2728156082      -16.3970715232
 H         5.9590044012       -1.9381187798      -16.8035313045
 H         4.0928664423        0.3887105469      -17.0187075506
 H         4.5716392842       -0.1177710197      -15.4088528861
 H         2.8706618061       -2.9120231733      -12.9570999971
 H         1.8812751095       -3.4227296674      -14.3726191331
 H        -0.2407507983       -2.6935243612      -13.2798849825
 H         0.5107335071       -1.6947911829      -12.0691062707
 H        -0.8197654790       -1.0884669254       -8.2580389105
 H        -1.3587990618       -2.5866243416       -7.9052867233
 H        -3.4591374428       -1.0808036715       -9.5657854661
 H        -2.9200004298       -0.3289986819       -7.9712531245
 H        -6.1655731130       -4.8605786245       -7.3913366769
 H        -6.9834869540       -4.1146496291       -8.6580860816
 H        -7.8554200750       -4.5180632731       -5.6566969809
 H        -8.3155728431       -5.5792414172       -7.0299045774
 H       -11.6633009523       -6.7878557770       -5.6650092092
 H       -12.5426847046       -5.7571686608       -4.6029108171
 H       -11.3420314840       -7.3605182112       -3.0720132655
 H       -10.1520988789       -6.0329547060       -3.0586524783
 H        -8.4516824014       -7.7445263227       -0.3969212825
 H        -9.3837327973       -6.7457567989       -1.4678187081
 H        -6.7206064011       -6.2331236502       -0.1498216454
 H        -8.2025905575       -5.4253842823       -0.1227989504
 H        -4.0940309681       -2.4247555032       -1.0430420607
 H        -5.2132942246       -3.2273791084       -0.0113871936
 H        -5.8192006989       -0.3097580567       -0.7404542872
 H        -4.7888689134       -0.9068927581        0.6720360803
 H       -10.3079732184       -1.0274625451        1.3417289023
 H        -9.3682581180       -1.9176215861        0.0548159624
 H       -11.3312275100        0.4295135659       -0.5543633459
 H       -11.7147252380       -1.2325571386       -0.6782858543
 H       -11.4422890372        1.7940049635       -5.4964801847
 H       -12.1815791506        0.3007377463       -6.0073046540
 H       -11.0376172323        0.9277784547       -8.1000917005
 H        -9.9490547454       -0.1484051686       -7.4909867014
 H        -9.7389609004        3.2644217776      -11.7752742701
 H       -11.2521435957        3.0339595637      -10.9753562533
 H       -10.5370381919        1.7139342772      -11.8121685268
 H       -11.3996840335        3.3040512430       -7.2289409673
 H       -11.7478237881        2.6066595509       -8.8220280312
 H       -11.3511278613        4.3744924391       -8.6244148861
 H        -7.8737347754        3.6483888858       -8.1847558026
 H        -9.0903261516        4.9977023787       -7.7109154506
 H        -8.6266879764        4.6399297254       -9.3956267011
 H       -12.6623854684        1.2312778422       -3.9908777928
 H       -12.4107193551        1.4336509801       -2.2363533208
 H       -12.7432910062       -0.2473053504       -3.0626491320
 H        -9.8700384535        2.6466585243       -3.5788332438
 H        -8.6380029807        1.6219803417       -3.2943042278
 H        -9.7779279340        2.0495673659       -1.9842383214
 H        -8.7504487467        0.1670531928        3.3184956375
 H        -7.3838977902       -1.0359108143        3.7020559459
 H        -8.7495005501       -1.6105906953        2.8884234899
 H        -5.7447718477        0.5852917921        2.5853452167
 H        -7.0330361408        1.7651403951        2.3728629067
 H        -6.1693517216        1.4285061097        0.9237912785
 H        -5.0683351721       -6.2397281838       -1.7380468484
 H        -4.8463489793       -4.9650053743       -0.3837258053
 H        -3.9344425279       -4.8148009525       -1.8423335356
 H        -4.9940710422       -3.9267202742       -4.1462333247
 H        -6.6784430751       -4.5676698554       -4.2362770130
 H        -5.3270355566       -5.6518960135       -3.9965963733
 H       -10.1563225898       -9.4245065267       -2.3732743767
 H        -8.7851242366      -10.5691688190       -2.8565437674
 H       -10.0641248347      -10.1857523570       -3.9776266804
 H        -6.7414585451       -8.8242887643       -4.9851163707
 H        -8.1486181462       -9.9293060245       -5.2893884703
 H        -6.9683962653      -10.1823112399       -3.9908792979
 H       -12.0929354975       -2.5940509341       -7.5393058897
 H       -11.4239173816       -2.4279812122       -5.8763107975
 H       -12.7937263922       -3.5111725974       -6.1824409519
 H       -12.1655192863       -5.6643518089       -7.7134765814
 H       -10.5091137410       -5.8166594742       -8.2463270550
 H       -11.4446889665       -4.5899469832       -8.8682560822
 H        -6.6213693371       -0.0449032102       -7.0130660167
 H        -4.9914225704        0.3783012810       -7.6204399710
 H        -5.1455554005       -0.6148327296       -6.0633329969
 H        -5.3695440942       -1.3383161274       -9.9843435180
 H        -6.9336832845       -0.9009694414       -9.3101470112
 H        -6.7100573357       -2.5837539515       -9.5140410553
 H        -0.4114574793       -4.4266553220       -8.1786970189
 H         0.2940738383       -5.3447612386       -9.3851806137
 H        -1.2473230165       -4.8321677569       -9.7447597367
 H         1.4777036031       -2.5787844472       -8.5505845864
 H         1.6863160685       -1.8174317412      -10.2187521398
 H         2.1901303653       -3.4277078132       -9.9459634558
 H         1.5981293743        0.8729116001      -15.2626132091
 H         0.1641724234        0.1047605989      -15.9992262412
 H         1.5867878135        0.6900110294      -16.8776594712
 H         1.6163223780       -3.2607345526      -16.3627645752
 H         0.5510765255       -2.0151208922      -17.2401625068
 H         0.1005894290       -2.6192681879      -15.6499926377
 H         6.2302972250       -3.9625978698      -19.9237188373
 H         4.6477267462       -2.8457497949      -19.9004945470
 H         5.4345015265       -3.2712941892      -18.4459809047
 H         8.4275857159       -3.1033478244      -19.3203983941
 H         7.7923443158       -2.8384843324      -17.7514578951
 H         8.6967818517       -1.5365812729      -18.5416828089
 H         7.3020457741        0.6588835233      -25.2441869880
 H         8.9507636842        1.3234652381      -25.1431490922
 H         7.7932552149        2.2737084441      -26.0009644316
 H         8.3446800217        4.1382957905      -24.4323575414
 H         9.5337616219        3.3053211183      -23.2509500711
 H         8.2903578953        4.1937261900      -22.6006818982
 H         1.2459100563        3.7770036309      -19.2750206335
 H         2.9803786038        3.6508990439      -19.2388422128
 H         1.9435768997        2.3959157830      -20.0807600373
 H         0.3539661846        3.0216971429      -21.7437717823
 H         1.8132672238        2.3037909826      -22.6382847658
 H         1.0476122923        3.8463859855      -23.0337288422
 Na       -8.4985310337       -2.6686781549       -4.2450484653
 Na        5.4092208503        1.4716970158      -21.0743043564
