232

 C       -22.6160822209       -6.4057194073       -2.6602026347
 C       -21.2829561091       -5.7957836342       -3.0543168203
 O       -20.3246396603       -5.8891470650       -2.2887004636
 C       -21.1710005976       -5.0281688452       -4.3989889231
 C       -20.2554148759       -3.8055115007       -4.3195325718
 O       -20.1253941717       -3.2010458784       -3.2761196882
 C       -19.4513348679       -3.3750765873       -5.6363857697
 C       -18.3878550993       -2.3962857678       -5.1759979930
 C       -17.4936449979       -3.0672297504       -4.1273813594
 O       -17.5483074544       -4.2976157695       -4.0942560274
 C       -16.4484479745       -2.2689471143       -3.3488591622
 C       -16.2508524195       -3.1873552306       -2.1019764186
 O       -17.0969699175       -3.0896420165       -1.2067137582
 C       -15.1464956800       -4.2446030177       -2.0354534618
 C       -15.2487675345       -5.1034615135       -0.7149710987
 C       -15.5868290338       -6.5578439611       -1.2083975527
 O       -16.6999898160       -6.6188442193       -1.7115571911
 C       -14.4869775345       -7.5981181953       -1.2666678264
 C       -13.3242704268       -7.0709996123       -2.1859038779
 O       -13.5073624019       -6.6124517191       -3.3070686189
 C       -11.8849462787       -7.3410640271       -1.7172424364
 C       -11.3146768799       -8.4189195164       -2.5930817620
 C       -10.0207419537       -9.0063782808       -1.9941033585
 O        -9.6426248707       -8.7788904337       -0.8714136531
 C        -9.1183432023       -9.9157550875       -2.9396812108
 C        -7.9874661458       -8.9484233889       -3.5590362993
 O        -8.2808654263       -7.7672176801       -3.7152707280
 C        -6.6952563530       -9.6183027690       -3.8107967132
 C        -5.5575893926       -8.5874954647       -4.1718974910
 C        -5.8478746779       -7.7642758999       -5.4093403942
 O        -5.9800913858       -8.3480574270       -6.4947079018
 C        -5.9755363848       -6.2321404797       -5.4512122831
 C        -5.0156437319       -5.7777033410       -6.6140661653
 O        -3.8729063696       -5.3670100579       -6.3835096415
 C        -5.4490562126       -6.0177156089       -8.0398067096
 C        -4.3044853906       -5.7199067740       -8.9737353049
 C        -4.6176163995       -5.3817387325      -10.3892225439
 O        -4.3906667771       -6.2489779895      -11.2381446536
 C        -5.1720103609       -4.0545085998      -10.8612324625
 C        -3.9351950403       -3.0665675504      -11.0703688035
 O        -3.9234721407       -2.0225666519      -10.5085610233
 C        -2.7073996482       -3.5773317408      -11.8271590635
 C        -1.5560119838       -2.4047730537      -11.7979564951
 C        -0.5223631764       -2.4134048593      -12.9219273414
 O        -0.7020221702       -1.7951711814      -13.9484130767
 C         0.8059504634       -3.3235055283      -12.7247865230
 C         2.0602168670       -2.5235924708      -12.8286467191
 O         3.0225292452       -3.0114067546      -13.2924612960
 C         2.1688598667       -1.1889073282      -12.0099953564
 C         3.6017248383       -0.6758301634      -12.2947423890
 C         4.0152619899        0.4803745596      -11.1527361987
 O         3.1331173316        0.9434931732      -10.5180008495
 C         5.4834905404        1.2156410051      -11.2669758349
 C         5.1053057695        2.2499919654      -12.4178753818
 O         5.6463409462        2.2495552298      -13.5361445299
 C         4.1469328537        3.4518340814      -11.9857705454
 C         4.9917800643        4.7595519732      -11.5949036661
 C         5.6375974397        5.2976883170      -12.8423847848
 O         5.1703309970        4.9807824555      -13.9256106698
 C         6.8745777812        6.2029069340      -12.7763051687
 C         7.3462172598        6.6745793015      -14.3582749315
 O         7.0984014272        7.7866471547      -14.7442154765
 C         8.2358848413        5.7520125204      -15.1760668045
 C         8.2741395642        6.2096813841      -16.5374519613
 C         6.7959078172        6.2542497624      -17.2125108470
 O         5.9156105674        5.5610052701      -16.6907593538
 C         6.5032865281        7.1422963771      -18.3830173689
 C         7.7647358272        7.0667698749      -19.3938734669
 O         8.4892682695        8.0561478254      -19.5387917839
 C         8.0875367358        5.7150026323      -19.9946208925
 C         9.6117369884        5.6783736811      -20.3518176816
 C        10.1763557278        4.3423063618      -19.4594549368
 O        10.5929211583        4.4582323239      -18.3485814564
 C        10.1999101583        2.9591394275      -20.1570053818
 C         9.1049969715        2.0906597819      -19.4397140181
 O         7.9495352654        2.0392757343      -19.8371890569
 C         9.4908053587        1.4699385316      -18.0656560763
 C         8.4861955494        0.5665086374      -17.6366669738
 C         7.0981547120        1.2582575044      -17.3669995980
 O         6.9897873899        2.2666069017      -16.6948791776
 C         5.7877007091        0.5112805407      -17.9275976716
 C         4.8528119063        1.4805816429      -18.5522138355
 O         4.2432615377        2.2904472117      -17.8325982499
 C         4.7277316244        1.4269235287      -20.0583957721
 C         6.1461533788       -0.7363777763      -18.9311244450
 C         5.2436143642       -0.0655927820      -16.5997008745
 C         9.8514494257        3.1523404525      -21.6909956260
 C        11.6857447391        2.3723317491      -20.0634884477
 C         5.1506898825        6.8803358480      -19.0803864358
 C         6.4901596083        8.6896827822      -17.9096437069
 C         6.4828757062        7.5555710261      -12.0270391458
 C         8.0207565479        5.5329165753      -12.0290385208
 C         5.7576621548        1.8819455922       -9.8940858091
 C         6.5734881851        0.2767926601      -11.8094733597
 C         0.8160977891       -3.9751903472      -11.2750436150
 C         0.7700347609       -4.4558828316      -13.7383043446
 C        -5.7876246212       -4.1941118235      -12.3579164601
 C        -6.1760884074       -3.4118021496       -9.8813695747
 C        -7.5134569260       -5.8621618949       -5.7636973615
 C        -5.5422023439       -5.5304965137       -4.2008379025
 C        -8.6124957117      -10.9787286776       -1.9848876151
 C        -9.9667599898      -10.4554649151       -4.1342387489
 C       -13.9797264581       -7.8956040286        0.1761465003
 C       -15.1375414935       -8.8446419407       -1.9578660209
 C       -15.2003222460       -2.1964996796       -4.3867441846
 C       -16.9582051995       -0.8194572002       -2.9601772576
 C       -20.6434086369       -6.1004142065       -5.3459016369
 C       -22.5809572372       -4.5193156939       -4.8565103221
 H       -23.1158694874       -5.6268984198       -2.0034094110
 H       -22.4271107371       -7.3190802317       -2.0997719045
 H       -23.1354334391       -6.7788403415       -3.5554293154
 H       -20.2395540606       -2.8927079922       -6.2585633615
 H       -19.1662963496       -4.2796718818       -6.1754204204
 H       -18.9439108394       -1.5780246692       -4.6610172430
 H       -17.7579425614       -1.9116646294       -5.9373288619
 H       -14.1352627782       -3.7799126247       -2.1243020921
 H       -15.1976106871       -4.9085944697       -2.8684368400
 H       -15.9210707655       -4.6862266851        0.0661685231
 H       -14.2942627658       -5.0490848383       -0.1916649753
 H       -12.0032907766       -7.5802411027       -0.6118509238
 H       -11.2573995319       -6.4596396141       -1.8653472116
 H       -11.1681791636       -7.9905984580       -3.5341705898
 H       -12.1058937256       -9.2069613188       -2.7597540761
 H        -6.7785744143      -10.2855898184       -4.6026700845
 H        -6.3595694153      -10.1382593594       -2.9484525762
 H        -4.6903701645       -9.2055198423       -4.4260869464
 H        -5.2253996977       -7.9500074038       -3.3442551440
 H        -6.2829157169       -5.3573857567       -8.3244247458
 H        -5.7815777956       -7.0369005638       -8.2407639978
 H        -3.6693579935       -6.5436405356       -8.9943382216
 H        -3.6994480212       -4.8755954046       -8.6331761594
 H        -2.8655855404       -3.9936227131      -12.8322227044
 H        -2.4130448859       -4.5273351603      -11.2623472173
 H        -1.1882045131       -2.5290182092      -10.7671537525
 H        -2.0751706243       -1.5305308817      -11.6749036821
 H         1.8889918165       -1.4398301277      -10.9443956553
 H         1.4895532198       -0.3632225501      -12.2528481018
 H         3.5422860538       -0.2271984018      -13.2890815282
 H         4.3000772616       -1.5158677775      -12.3662039334
 H         3.6752459057        3.2290143872      -11.0866517906
 H         3.4996177355        3.6668296839      -12.8097672372
 H         5.6882409281        4.6083545295      -10.7835504099
 H         4.3385697571        5.5674970626      -11.2228997557
 H         8.0376173578        4.6361728638      -15.0495370921
 H         9.2274133793        5.8381888931      -14.7582259314
 H         8.8893114038        5.5080576679      -17.2752037876
 H         8.7144999860        7.1790789848      -16.7071686735
 H         7.4427663679        5.6377617837      -20.8857923466
 H         7.7695919412        4.9606486078      -19.2959284177
 H        10.2710368257        6.4495692069      -19.8636788939
 H         9.8555143645        5.6573417997      -21.3880300307
 H         9.7347727877        2.3339096343      -17.4410015739
 H        10.4337170630        0.8925013835      -18.2168489402
 H         8.8806411327        0.0003827414      -16.7750853719
 H         8.2963647015       -0.1732937814      -18.4311903976
 H         4.1207972521        2.3219941782      -20.2904009672
 H         4.2050611452        0.5877555876      -20.3983884055
 H         5.6371018649        1.5760286620      -20.6021353378
 H         5.2455850751       -1.1474831511      -19.2190188766
 H         6.7612183653       -1.5125908553      -18.4254839370
 H         6.7598755455       -0.3380440856      -19.7449341924
 H         4.4678573374       -0.7708190678      -16.7785991215
 H         4.8536863459        0.7074757209      -15.9380113604
 H         6.0165988625       -0.7615046365      -16.2351146040
 H        10.1782493949        2.2319434133      -22.3077474949
 H        10.5115436027        3.9602821670      -21.9917522232
 H         8.7320399821        3.3312347727      -21.7854951554
 H        11.7360203509        1.3374940856      -20.2003636439
 H        12.0968794788        2.5855193369      -19.1057043225
 H        12.3454453765        2.8539917519      -20.7449708616
 H         4.4565192912        7.4714199742      -18.5392856554
 H         4.9550744036        5.8235324729      -19.0517921703
 H         5.2324006990        7.2917338886      -20.0861660111
 H         7.3806895180        8.9428961314      -17.3554229925
 H         5.5539997684        8.8968413148      -17.2763856847
 H         6.4088768953        9.4349056134      -18.6891845702
 H         7.1885585473        8.3494837116      -12.3592278617
 H         6.5288325395        7.5342288046      -10.9630976158
 H         5.4484046222        7.8622767107      -12.1112531930
 H         7.6595535368        5.1266816536      -11.0848213917
 H         8.7517977297        6.3678879299      -11.8471601311
 H         8.5088376283        4.7794391444      -12.7151622783
 H         6.4138559430        2.6683829567      -10.0298210751
 H         6.2609557968        1.1959092754       -9.2285451248
 H         4.8499017896        2.0489246447       -9.3502096030
 H         6.4608272583       -0.6962587907      -11.2503085561
 H         7.4706068818        0.8169601842      -11.6409639722
 H         6.3069821770        0.2604119208      -12.8393258204
 H         0.7535686331       -3.2910031384      -10.4489705044
 H         1.8590860968       -4.4486948176      -11.1203326159
 H         0.0657710153       -4.7922624779      -11.2405323947
 H         0.0177036381       -5.1426171355      -13.5174719493
 H         1.6863893021       -4.9627917460      -13.6366479649
 H         0.6673900030       -4.0853700759      -14.7597089066
 H        -6.4440520500       -5.0420498425      -12.5868834684
 H        -4.9088871170       -4.2101784121      -13.0839211712
 H        -6.3723617673       -3.2673441717      -12.5472187062
 H        -6.5758610190       -2.3791403114      -10.1843986379
 H        -5.8438924441       -3.2917248860       -8.8511011325
 H        -6.9762762268       -4.1214159297       -9.6754538841
 H        -8.0045252901       -6.2460383973       -6.6901985052
 H        -7.5691839072       -4.7830148210       -5.7618446218
 H        -8.1532084313       -6.1334253211       -4.9377910844
 H        -6.4351003871       -5.4432484891       -3.5686582510
 H        -5.1138318299       -4.5756327246       -4.5167327801
 H        -4.7888432142       -6.0868997205       -3.7074281645
 H        -9.3869564715      -11.4704818493       -1.4346067941
 H        -7.7306396209      -10.6979646944       -1.4228068681
 H        -8.2213244260      -11.7763381243       -2.6153788715
 H       -10.9298082444      -10.8498121121       -3.7808807536
 H        -9.5880270658      -11.2767524151       -4.6664075507
 H       -10.0237265178       -9.7425833254       -4.9839645908
 H       -13.6934934473       -8.9265868725        0.3948522950
 H       -14.8287406715       -7.7461695164        0.9679712238
 H       -13.2288993904       -7.2654117330        0.6357085312
 H       -15.3107480007       -8.5034350913       -3.0298691226
 H       -16.1589039214       -9.1614683985       -1.5654317090
 H       -14.3893545467       -9.6446897185       -1.8598760576
 H       -15.1357215217       -3.1942730361       -4.8869583627
 H       -14.2824047063       -1.9166150469       -3.9127005502
 H       -15.4633315833       -1.4283291620       -5.1230229825
 H       -17.7438940284       -0.9065600447       -2.1310782500
 H       -17.3820376750       -0.3491610831       -3.8247073088
 H       -16.1346538211       -0.2417799161       -2.8036190385
 H       -19.7396621100       -6.6087578972       -4.8983651742
 H       -20.4317119472       -5.7861073592       -6.3647581460
 H       -21.3006191972       -6.9129251907       -5.5197033544
 H       -22.6135511560       -4.1813971561       -5.8977496649
 H       -22.8893653474       -3.6340489465       -4.2934342735
 H       -23.3665179539       -5.2105608125       -4.6571173854
 Na      -18.3332203706       -4.8704623972       -1.8850709466
 Na        5.4721080897        3.4324780170      -15.5335534388
