232

 C         1.8406642104        6.1164555191      -20.0752581619
 C         2.0963286885        5.6927821120      -21.5473498641
 O         2.4699864008        6.4572551621      -22.3855195957
 C         2.0621081746        4.1162868873      -21.9437347208
 C         3.5092472507        3.6736893682      -22.2864252784
 O         4.1888134803        3.1175543608      -21.3876650025
 C         4.1921068938        4.1426151880      -23.5755857389
 C         5.7034923453        4.0968524562      -23.5506206646
 C         6.2185861466        2.6480691025      -23.5659421568
 O         5.4504249832        1.7193366904      -23.7517522421
 C         7.7840621217        2.3591959915      -23.5443510950
 C         8.0241664844        1.4585625390      -22.3304607012
 O         7.6651616851        1.9169813943      -21.2907174258
 C         8.5735609045        0.0331562148      -22.3376470588
 C         8.3352939910       -0.7513648509      -21.0399792723
 C         6.8137756352       -1.1990189540      -20.9421298464
 O         6.0954764652       -1.1469421027      -21.8793205671
 C         6.4397225490       -1.8628252106      -19.6268909768
 C         5.7892415064       -0.7931637240      -18.6019472420
 O         5.4284898497        0.3126450689      -18.9293369864
 C         5.7287441556       -1.2464323022      -17.1496478944
 C         4.5838856029       -0.7908572246      -16.1220298885
 C         3.1839389120       -1.1974460367      -16.6763809078
 O         3.0521371578       -1.9436620352      -17.5982899710
 C         1.8912755588       -0.7535539388      -15.8007305227
 C         2.2688332151       -1.3132287627      -14.4001174337
 O         3.1255905705       -0.7049816023      -13.7430009290
 C         1.5747805263       -2.6011094834      -13.8059195671
 C         0.8792778450       -2.1643785256      -12.5461235391
 C         0.5088382902       -3.4402525329      -11.7215490992
 O         0.7297724556       -4.5313408292      -12.1708375749
 C         0.0426405455       -3.3668329665      -10.1376877826
 C        -1.4061174894       -2.6982752498      -10.0645251432
 O        -2.1379985797       -2.6561202917      -11.0319792426
 C        -1.9829519134       -2.3328956338       -8.6055094054
 C        -3.2626287951       -1.4659489391       -8.7373522360
 C        -4.4125347419       -2.1863029635       -7.9601383223
 O        -4.1906743883       -3.3666115541       -7.5965164122
 C        -5.7706725257       -1.4824221098       -7.7947745695
 C        -6.5951146653       -2.5013332818       -6.9627689880
 O        -6.9492479791       -2.2203345167       -5.8613044684
 C        -6.7531839667       -4.0586797908       -7.4993118741
 C        -7.9783336140       -4.6877647903       -6.7285673696
 C        -9.3385099310       -3.9260723483       -7.0122035460
 O        -9.2804306454       -3.0160814244       -7.8040083197
 C       -10.7207967414       -4.4680670055       -6.4889136140
 C       -10.5606785922       -4.9577442046       -5.0918615170
 O        -9.7499298044       -4.4377164842       -4.2979989660
 C       -11.5727259145       -6.0404835221       -4.4211003166
 C       -10.9516060712       -7.3144431625       -3.8753678530
 C        -9.4539925468       -7.5393496997       -4.2121643460
 O        -9.0227963304       -6.7763119137       -5.0737124673
 C        -8.6413295645       -8.5409087141       -3.4452004374
 C        -7.7942345916       -7.7821370402       -2.4166891361
 O        -6.6278414525       -7.5569780677       -2.7264452638
 C        -8.4908129253       -7.1871885659       -1.1632387023
 C        -7.4482899104       -6.3266725533       -0.5476578115
 C        -7.2348632507       -5.0130509797       -1.3210929894
 O        -8.1912578025       -4.2984742137       -1.5627645149
 C        -5.8391180767       -4.5747853453       -1.7980000433
 C        -5.6598648894       -2.9880826768       -1.8090543076
 O        -6.2997929192       -2.1690380071       -2.4752074783
 C        -4.5709738368       -2.3057893418       -0.8705488313
 C        -5.1085296971       -1.1184444661       -0.0182257069
 C        -6.3952430444       -1.5452418106        0.5768054315
 O        -6.7871009311       -2.7005783830        0.5002312389
 C        -7.2816063323       -0.4759125839        1.3483780514
 C        -8.5455535842        0.0313121992        0.5337642441
 O        -8.4158822845        0.8969353178       -0.3267258450
 C        -9.7481758684       -0.9419711090        0.6295758092
 C       -10.8802933271       -0.5845693354       -0.4425900149
 C       -10.2880512182       -0.7305302340       -1.9358676727
 O        -9.4808729809       -1.6158068880       -2.1495939328
 C       -10.8156255437        0.2950377284       -3.0916667148
 C       -10.3454944366        0.0149988075       -4.5800897970
 O        -9.6694770501       -0.9254062694       -4.9214186266
 C       -10.8963937004        0.8783183120       -5.8060830810
 C       -10.2226427132        0.7852718516       -7.2401232742
 C        -9.1344539512        1.7468842613       -7.6716330909
 O        -8.0863274048        1.7523004937       -7.1095036428
 C        -9.5953051584        2.8337517261       -8.7161140671
 C        -9.7839442474        2.1838413201      -10.2018719846
 O        -9.0452454368        1.3268503575      -10.5716319166
 C       -10.8463518997        2.7258962488      -11.0656923544
 C       -10.9293675864        3.4349092377       -8.2453790807
 C        -8.5777716378        4.0187016385       -8.8361553136
 C       -12.3500390546        0.5046631868       -3.0513194333
 C       -10.2209638159        1.6582739023       -2.7189979809
 C        -7.7674109265       -1.1757502457        2.6708458985
 C        -6.4470873438        0.7011406039        1.7553268463
 C        -4.5651737039       -5.2808558118       -1.1983924921
 C        -5.7434677665       -4.7807204076       -3.3913246945
 C        -9.5671894027       -9.5453681817       -2.6610391646
 C        -7.7437188829       -9.0586816985       -4.5747740333
 C       -11.7003544098       -3.2974483536       -6.3667705361
 C       -11.2371464198       -5.5764652851       -7.4316904860
 C        -5.5664609739       -0.2247401612       -6.8166528227
 C        -6.4146605605       -1.1397412293       -9.0979536437
 C        -0.0870440696       -4.7327426152       -9.5386291837
 C         1.1156271599       -2.5274226003       -9.4913719670
 C         1.6919915594        0.7396706309      -15.8157426752
 C         0.6149028931       -1.3858425914      -16.4323719865
 C         5.3383977669       -2.9298316119      -19.8449629234
 C         7.7103027597       -2.3754494449      -18.9641069197
 C         8.1967748820        1.7273273737      -24.9060717026
 C         8.6915791151        3.7903324755      -23.3665872276
 C         1.6884831914        3.3004084931      -20.7183220250
 C         1.1006414432        3.9005138115      -23.0937988263
 H         2.5154537241        6.9011346624      -19.7979564182
 H         1.9346578929        5.3315644141      -19.3638437260
 H         0.8431598132        6.5644319609      -19.8545019137
 H         3.7985722667        5.1693902434      -23.8058364769
 H         3.6497175271        3.5523857529      -24.3086973632
 H         6.0542206586        4.4187953477      -22.5751849699
 H         6.2683249059        4.6629620576      -24.3635266771
 H         9.6930675001        0.0572556953      -22.6354024010
 H         7.9966201514       -0.2207757050      -23.2380896056
 H         8.5240248022       -0.1470932091      -20.1225010040
 H         9.0875314173       -1.5109842976      -21.0852580263
 H         6.6263860828       -0.9222012243      -16.7116872965
 H         5.7082950118       -2.3509210445      -17.0775288414
 H         4.5958352860        0.2565333003      -16.0580885763
 H         4.7449349502       -1.2665882727      -15.2011026455
 H         2.3089753133       -3.2925023567      -13.5952179352
 H         0.9621913845       -3.1083221510      -14.5321767733
 H        -0.0741446234       -1.6284873891      -12.6835114645
 H         1.5801728829       -1.5485521791      -11.9788870996
 H        -1.1339753615       -1.7403773236       -8.1618597269
 H        -2.0367970149       -3.2892972042       -8.0282577729
 H        -3.5270215450       -1.5667231904       -9.8179787196
 H        -3.1401265768       -0.4145187391       -8.4732601694
 H        -5.7884450016       -4.5544292001       -7.2487590183
 H        -6.9960145874       -4.0978811584       -8.5821846116
 H        -7.7234376878       -4.5860463791       -5.6870122174
 H        -8.1278682276       -5.7619531048       -6.9712796339
 H       -12.4388280192       -6.2046790490       -5.1449061177
 H       -11.8374829147       -5.4485183860       -3.5391763761
 H       -11.5966821016       -8.1926275216       -4.0886975051
 H       -11.1002223836       -7.1861510075       -2.8110844478
 H        -8.8315566562       -8.0639581387       -0.5776617594
 H        -9.3986727770       -6.5989533493       -1.4970530738
 H        -6.5494876273       -6.9046516762       -0.4707898155
 H        -7.7803314474       -6.1339512746        0.5078321498
 H        -3.6660005987       -1.9586167648       -1.4245157642
 H        -4.1286179109       -3.1237191513       -0.1812059420
 H        -5.4293862414       -0.3679470667       -0.7281776747
 H        -4.3138862890       -0.5764307743        0.6089441080
 H       -10.1603844506       -0.7729836711        1.6211986258
 H        -9.2972851489       -1.9426350736        0.4584074634
 H       -11.1362505103        0.4627607880       -0.2418882620
 H       -11.7790060000       -1.1776081877       -0.2805682464
 H       -10.8988974592        1.9701213985       -5.5319872270
 H       -12.0092003592        0.6872502243       -5.9178921690
 H       -10.9850719501        0.8570981558       -7.9919148278
 H        -9.8936242977       -0.2240146581       -7.4983304611
 H       -11.6977966130        3.1378840610      -10.4739935731
 H       -11.2873737498        1.8661542958      -11.5559711128
 H       -10.6094559346        3.5766678185      -11.6841876634
 H       -10.9435275648        3.6010749633       -7.1872394652
 H       -11.6972698311        2.7479097907       -8.4858096275
 H       -11.0729671938        4.3086797746       -8.8667767303
 H        -7.5775997313        3.6329941803       -9.0841630326
 H        -8.4810172535        4.5680708957       -7.8949997219
 H        -8.9752759669        4.6896589188       -9.5157718518
 H       -12.4814119318        1.4776451858       -3.5014830233
 H       -12.5964602859        0.5996978978       -1.9578756137
 H       -12.9796466947       -0.3013625696       -3.4391072758
 H       -10.0775783715        2.3434090746       -3.5607271824
 H        -9.3294297141        1.4416291342       -2.2182817728
 H       -10.7905892733        2.3116813882       -2.1162595490
 H        -8.3449517635       -0.5947435654        3.3744538898
 H        -6.9129571370       -1.6400729078        3.1728810732
 H        -8.4676479892       -1.9538985945        2.3545819647
 H        -5.6521212215        0.4935223763        2.4748716703
 H        -7.0452780254        1.5028235234        2.2990478776
 H        -5.9348084201        1.2152410902        0.8532633827
 H        -4.5118520504       -6.3453020932       -1.6356029557
 H        -4.6644894848       -5.3817096276       -0.1234171477
 H        -3.7858370766       -4.6012080037       -1.5549836589
 H        -5.8331761219       -5.7761679027       -3.6808533048
 H        -4.8112417078       -4.4561409156       -3.8731497020
 H        -6.6161244869       -4.1470639324       -3.7659643859
 H       -10.1915488367       -9.1955089161       -1.8341953994
 H        -9.0171370447      -10.4078894354       -2.2649372474
 H       -10.2934380167       -9.9599298174       -3.4304561444
 H        -7.3934403670       -8.2283726758       -5.2275226067
 H        -8.2720562159       -9.7225174382       -5.2658580259
 H        -6.9600454749       -9.6901768205       -4.1991172887
 H       -11.9934976470       -2.9109122877       -7.3164153774
 H       -11.1162449885       -2.5880356734       -5.7706865082
 H       -12.5982306518       -3.6618038062       -5.9317515796
 H       -12.2111031521       -6.0238141625       -7.1663700104
 H       -10.5258958218       -6.3500989746       -7.4281978126
 H       -11.4000996195       -5.2766598117       -8.4532874031
 H        -6.4516294888        0.4400015032       -6.9050625116
 H        -4.6516471904        0.2961388262       -7.1969589402
 H        -5.3131111890       -0.6190138679       -5.8686244359
 H        -7.2810827602       -0.5173911568       -9.0247818459
 H        -6.4369977040       -2.1147268130       -9.6575202857
 H        -5.6606244228       -0.6280497284       -9.7013841245
 H        -0.3382157616       -4.6437547253       -8.4657129580
 H         0.8436930811       -5.2797207292       -9.7737326572
 H        -0.8555455393       -5.2625968806       -9.9185041335
 H         1.0626376040       -1.4117217834       -9.7073032186
 H         2.2141674752       -2.8750676570       -9.8264096508
 H         1.1591057909       -2.6264560754       -8.3958033945
 H         2.6015714275        1.2266994961      -15.8573254365
 H         1.3842767798        1.2865979415      -14.9494465193
 H         1.0554319548        1.1291517357      -16.6151375379
 H         0.8082038134       -2.4573947865      -16.6457869447
 H         0.4194196585       -0.9220978302      -17.3957885868
 H        -0.1526397200       -1.2685854503      -15.6674379444
 H         5.7723444640       -3.7614206865      -20.3540917906
 H         4.5941223016       -2.5521241671      -20.5123580659
 H         5.0000698794       -3.2812078804      -18.8096850892
 H         8.4965581034       -2.8906622988      -19.5464973221
 H         7.3977660699       -3.0712312083      -18.2499428983
 H         8.3828789618       -1.7007366574      -18.3631520525
 H         7.5470965601        0.8424213968      -25.0538370110
 H         9.2561176262        1.5923749785      -24.8708547655
 H         7.9212846261        2.3388563382      -25.7456069214
 H         8.8454984841        4.3915475678      -24.3009015704
 H         9.7207617713        3.3474675410      -23.3661986889
 H         8.4847116248        4.2158561137      -22.4071486496
 H         0.7217864146        3.5634194488      -20.2673998689
 H         2.4793568739        3.1880464891      -20.0070654997
 H         1.5666576502        2.2159813443      -20.9339731178
 H         0.1103882024        4.0254567471      -22.7997128438
 H         1.1287863069        2.8532590346      -23.4856719684
 H         1.2984430897        4.5866379967      -23.9443702267
 Na       -8.4793812546       -2.7637731863       -3.8406232242
 Na        5.3356125517        1.2076245272      -20.9968159123
