232

 C         1.3130599579        6.0794363772      -20.3970672566
 C         2.1614762730        5.7698183408      -21.6300683785
 O         2.9328939931        6.5704793951      -22.1159676193
 C         1.9303781868        4.3575632908      -22.2994180758
 C         3.3970515986        3.7972285680      -22.4040271113
 O         3.6875604180        2.9564114753      -21.5070105726
 C         4.2706136103        4.1742201438      -23.6256222814
 C         5.7162309190        4.0840908705      -23.5334268849
 C         6.2481471778        2.6527132196      -23.5550168456
 O         5.5329230940        1.6609577381      -23.6516880743
 C         7.8237720436        2.4325406864      -23.4514082134
 C         8.0264352343        1.5102009626      -22.1419200544
 O         7.5983121597        1.9173514764      -21.1138565115
 C         8.8494536278        0.1868561784      -22.0827049522
 C         8.6476166093       -0.7440952805      -20.9115281225
 C         7.0847108519       -1.2393408675      -20.8238451435
 O         6.3212674298       -0.7288274357      -21.5521799351
 C         6.5140263890       -2.1120984749      -19.7382348771
 C         5.6932813600       -1.0742638299      -18.7551141759
 O         5.3928442727        0.0466067560      -19.1735384356
 C         5.5488443020       -1.3588354753      -17.2730520263
 C         4.5687236672       -0.4631801405      -16.5274290787
 C         3.1482964393       -0.8185316812      -16.9538077429
 O         2.8917746868       -1.2641218287      -18.0168627561
 C         1.9389601292       -0.4648204787      -15.8950827703
 C         2.1060044210       -1.2216614883      -14.4885677989
 O         3.0638571375       -0.9029921572      -13.8057035765
 C         1.0670973219       -2.2246982494      -13.9147331673
 C         1.1179737965       -2.1273159108      -12.3759961484
 C         0.6206329607       -3.3867158134      -11.6500911316
 O         0.7686515999       -4.4235010584      -12.2151685970
 C         0.0704374170       -3.2800153873      -10.1428565246
 C        -1.3269409995       -2.6664964902      -10.3063938115
 O        -1.8367425849       -2.5461929131      -11.4056848928
 C        -2.1581423556       -2.5045002751       -8.9357710567
 C        -3.5235363764       -1.7487244130       -9.0717404398
 C        -4.5257409129       -2.4150049424       -7.9930518910
 O        -4.2294930223       -3.4425282313       -7.3715662458
 C        -5.8333745455       -1.6228410182       -7.4851785226
 C        -6.6523955765       -2.5466063866       -6.5755398695
 O        -7.0394591751       -2.1446368502       -5.5769645343
 C        -6.9489559085       -3.9105359509       -7.2191527139
 C        -8.2464939328       -4.5663577900       -6.6993986070
 C        -9.5155434770       -3.8249301492       -6.9956104608
 O        -9.6350235874       -2.8419835439       -7.6473320028
 C       -10.8831002872       -4.6171999219       -6.4512458846
 C       -10.8020013579       -4.9594494469       -4.9162660629
 O       -10.0192440784       -4.3357502293       -4.2276084112
 C       -11.6208772870       -6.1798241714       -4.3796668864
 C       -10.8625509532       -7.1190685164       -3.4439536356
 C        -9.5456342931       -7.6979177647       -4.0058910324
 O        -9.2306549287       -7.3373724046       -5.1195086648
 C        -8.6597380637       -8.7830198815       -3.2148860305
 C        -7.6502085048       -8.0264507509       -2.3910684360
 O        -6.4512707646       -8.1539978257       -2.5463316765
 C        -8.3022179170       -7.0988502187       -1.2177553812
 C        -7.2273220282       -6.1469063656       -0.6211191136
 C        -7.0664440319       -4.8955580846       -1.5389805637
 O        -7.9846561284       -4.4109463058       -2.1487632980
 C        -5.5541400097       -4.4953201152       -1.9436397887
 C        -5.3904218648       -2.8509408298       -1.7751422063
 O        -6.1385722658       -2.1138269861       -2.3926923664
 C        -4.3926352660       -2.2105880846       -0.7699564182
 C        -5.1035384995       -1.1075691975        0.0496274688
 C        -6.3460407855       -1.5781505391        0.6874488022
 O        -6.8848273894       -2.6328891009        0.3539706570
 C        -7.2223423398       -0.5245027504        1.5599779860
 C        -8.2932535026       -0.0807037338        0.4855280508
 O        -8.0480913792        0.8820625110       -0.2237991346
 C        -9.6430191827       -0.9252276200        0.4551771022
 C       -10.5988984189       -0.2102835917       -0.5770751203
 C       -10.0758347439       -0.4207961267       -2.0495453932
 O        -9.4675829663       -1.4426462280       -2.2044116946
 C       -10.7813881528        0.4866126288       -3.2237437691
 C       -10.2273238376        0.0751971681       -4.6369180804
 O        -9.6503518330       -0.9886232651       -4.8090682285
 C       -10.5894332983        1.0239566703       -5.7755777757
 C       -10.0691279972        0.6417390008       -7.1377354608
 C        -9.0987932108        1.6909737575       -7.6395252459
 O        -7.8807081044        1.6389462121       -7.3777869043
 C        -9.6975286366        2.8083091106       -8.5378158284
 C       -10.0621228787        1.9324590731       -9.7412016004
 O        -9.4823589664        0.8727917160       -9.8906541529
 C       -10.9457786072        2.5260573074      -10.8696583315
 C       -10.9272338023        3.5125097000       -7.9052152366
 C        -8.6753065423        3.9057109595       -8.9941795594
 C       -12.3043426157        0.2712700292       -3.1675957614
 C       -10.5584652074        1.9728615123       -3.0147607014
 C        -7.8669510060       -1.2318556791        2.7338357116
 C        -6.3594972472        0.6199046435        2.0231037027
 C        -4.4309843704       -5.1910159183       -1.1358864642
 C        -5.4389722435       -4.8743635320       -3.4012343241
 C        -9.7386449924       -9.6047071643       -2.4064897572
 C        -7.9105126980       -9.5831558420       -4.3110999122
 C       -12.1225387362       -3.6843813186       -6.6989629668
 C       -10.9609202296       -5.8705653687       -7.3028619076
 C        -5.3211194537       -0.3517490294       -6.8290192664
 C        -6.6859784585       -1.2126618919       -8.7279230297
 C        -0.1504808453       -4.7788852802       -9.4991131078
 C         1.1128903162       -2.5012105567       -9.3375215106
 C         2.1469003565        1.0700292805      -15.5928593353
 C         0.6488659493       -0.8236515697      -16.6014101135
 C         5.3296784953       -2.9296899615      -20.2740406977
 C         7.5149962921       -2.9890683836      -19.0140911917
 C         8.3536314026        1.7521754179      -24.7570763275
 C         8.5596699269        3.6355797241      -23.2269002195
 C         1.0327622441        3.3510616704      -21.4458998988
 C         1.2725915530        4.4456231086      -23.7475281553
 H         0.2276950169        5.9175645713      -20.6519625202
 H         1.4488699919        7.0821649327      -20.0179206583
 H         1.4730080868        5.4101855427      -19.5030668495
 H         3.9758382859        5.1798818423      -23.9149747244
 H         3.8887258529        3.6147110157      -24.4812733823
 H         6.1475545735        4.5385561802      -22.6283150957
 H         6.1660631371        4.6487420350      -24.4663439147
 H         9.8996396412        0.6281558460      -22.3037282961
 H         8.4856089632       -0.2488903114      -22.9463892764
 H         8.9255768407       -0.3631275545      -19.8847275348
 H         9.2288694480       -1.5494573225      -21.1974601252
 H         6.5085836067       -1.3287308889      -16.7461234988
 H         5.1715064930       -2.4222451160      -17.1043243286
 H         4.7682635450        0.5572648080      -16.8314447468
 H         4.6308153021       -0.5406859545      -15.4569327954
 H         1.3608471467       -3.1929178274      -14.2599347326
 H         0.0682057796       -2.1143572138      -14.3966459204
 H         0.5750883354       -1.2262508122      -11.9892773889
 H         2.1727223645       -1.9808948212      -12.0744214375
 H        -1.4753763968       -1.9949585163       -8.2423199468
 H        -2.4263940150       -3.4515183004       -8.5406043151
 H        -3.9986579141       -1.8695285361      -10.0375307117
 H        -3.4912887214       -0.6751219345       -8.9629268223
 H        -6.1635319557       -4.6495174247       -7.0472051707
 H        -7.1360740942       -3.6635688767       -8.2606829004
 H        -8.1148832978       -4.8539986891       -5.5900748136
 H        -8.2566534154       -5.5219025236       -7.2614554606
 H       -11.9531710532       -6.7496822377       -5.2804306929
 H       -12.5157428746       -5.8285659143       -3.8584161148
 H       -11.6009560101       -7.9245856640       -3.4571445469
 H       -10.9646311037       -6.8673013426       -2.4141714284
 H        -8.4839453297       -7.8165889018       -0.3823485783
 H        -9.2175471547       -6.5423684001       -1.5441650306
 H        -6.3625052340       -6.7467974964       -0.3317623579
 H        -7.7673741548       -5.7867126424        0.2908049601
 H        -3.4844538597       -2.0023509298       -1.3035163330
 H        -4.2227034887       -3.0660919785        0.0046436175
 H        -5.3896946490       -0.2805170270       -0.5536301457
 H        -4.4220149607       -0.6124638749        0.8369675586
 H       -10.0914730979       -0.7504975296        1.4425790432
 H        -9.3739068923       -1.9631735919        0.1799074099
 H       -10.5584344100        0.8581046374       -0.2523437833
 H       -11.6400464721       -0.6140367470       -0.5604653712
 H       -10.0517820281        1.9138474457       -5.4903938363
 H       -11.6182235540        1.3130389878       -5.8372518183
 H       -10.9539426821        0.8198728720       -7.7732111628
 H        -9.7845355150       -0.4395302348       -7.1904677856
 H       -11.3334397454        1.6004926363      -11.3477072371
 H       -10.2792417717        2.9039200564      -11.6019994087
 H       -11.7814398161        3.2357721315      -10.6681155974
 H       -10.6001399999        4.0818654287       -7.0380917360
 H       -11.6064627233        2.6884111423       -7.6133255949
 H       -11.4192535698        4.2153097231       -8.5514762088
 H        -7.7875984494        3.3863832241       -9.3963912932
 H        -8.3089966207        4.5235912725       -8.0994734952
 H        -9.0765260232        4.4729220837       -9.8629714756
 H       -12.7598572675        0.6789436331       -4.1041063095
 H       -12.7141630766        0.7249750943       -2.2298894419
 H       -12.6491570923       -0.7883674377       -3.1234415350
 H       -11.3649931606        2.5787078973       -3.5242572760
 H        -9.6080501798        2.2348273876       -3.4617148376
 H       -10.3780420868        2.2726376016       -2.0193023963
 H        -8.6845367029       -0.6399959040        3.2180727198
 H        -7.1222700970       -1.3541453272        3.5966415811
 H        -8.2214716269       -2.2170131325        2.4526382787
 H        -5.4644715035        0.2732899946        2.4706919043
 H        -6.9353284296        1.2211391572        2.7106836241
 H        -5.9134886645        1.3181522326        1.2739355335
 H        -4.2674543748       -6.2470779073       -1.4162741116
 H        -4.6492539001       -4.9325281117       -0.0948222332
 H        -3.5939205016       -4.7433763813       -1.5605087812
 H        -5.5214291642       -5.9208371193       -3.5489655339
 H        -4.4916126259       -4.5588255082       -3.8806276586
 H        -6.3571038554       -4.4549075626       -3.9141727152
 H       -10.3307754957       -8.9866104242       -1.7627993576
 H        -9.3695461015      -10.3341121697       -1.7283099837
 H       -10.3857224892      -10.1574876695       -3.1533632258
 H        -7.2598874402       -8.9012627942       -4.8868066008
 H        -8.5404593252      -10.0132590789       -5.1091977020
 H        -7.2807228699      -10.2955350340       -3.7963790632
 H       -11.9785002569       -3.3142874865       -7.7002169052
 H       -12.1070972872       -2.8409948385       -5.9930320674
 H       -13.0048137510       -4.2681145889       -6.6175766544
 H       -11.9861704551       -6.3140227129       -7.3656609600
 H       -10.4360000105       -6.7161129782       -6.9866613088
 H       -10.7481973934       -5.5319596531       -8.3377979228
 H        -6.1428039758        0.0074963399       -6.1858344912
 H        -5.0329472477        0.3865662629       -7.6002925465
 H        -4.4705637866       -0.6394882521       -6.2382418857
 H        -6.0347281925       -0.9719450525       -9.5604264102
 H        -7.2190839943       -0.2832732057       -8.4139028595
 H        -7.5333250928       -1.8013255272       -9.0180186964
 H        -0.7365728331       -4.7781704936       -8.5698232749
 H         0.7922702116       -5.2169337133       -9.3268596296
 H        -0.6961373986       -5.3739225406      -10.1884981860
 H         0.8660884301       -1.4177456029       -9.3620202880
 H         2.1572438763       -2.5120082588       -9.7697022549
 H         1.1311287872       -2.6840706435       -8.3069109096
 H         2.7564757866        1.3033776366      -14.7562109393
 H         1.2566729795        1.7651183351      -15.3630736954
 H         2.6689174188        1.6098073694      -16.4241201662
 H         0.5599204841       -1.9094071222      -16.7540357374
 H         0.7692598026       -0.4051835242      -17.5949732168
 H        -0.1606840934       -0.2954254238      -16.0892126301
 H         5.5217865571       -3.5208536838      -21.1916400731
 H         4.5484229855       -2.1582078261      -20.5938552514
 H         4.9826807268       -3.6095484737      -19.4906487363
 H         8.1252464138       -3.6784469683      -19.5919282435
 H         7.1652948531       -3.5174198469      -18.2106315676
 H         8.3122243475       -2.4054055864      -18.5129816240
 H         7.6971231121        1.0630391959      -25.1226375380
 H         9.2947060870        1.2819520461      -24.6255567469
 H         8.2380716761        2.6537805948      -25.4236586090
 H         8.3523683621        4.4186660814      -24.0345848834
 H         9.6166743736        3.3403901743      -23.1517155952
 H         8.2562970323        3.9981510215      -22.3083063838
 H        -0.0456768933        3.6275630704      -21.3682460297
 H         1.3353365374        3.2798949159      -20.3807230658
 H         1.1136244325        2.3220961805      -21.8182672404
 H         0.3444654214        4.9520659314      -23.7332791473
 H         1.1275635405        3.5057235700      -24.3819908962
 H         1.9863019796        5.0390394954      -24.3096244477
 Na       -8.0865543826       -2.7552384602       -3.6437117271
 Na        5.2037508563        1.2697558656      -21.2467164848
