232

 C       -14.8673645419      -14.1819677283       -0.5699088480
 C       -15.0987525551      -14.2410986557       -2.0826024305
 O       -15.1224106270      -13.2066878842       -2.7422290802
 C       -15.4091261415      -15.5824334359       -2.7057523359
 C       -15.1393392425      -15.5491669298       -4.2179680502
 O       -16.0926034198      -15.1493392560       -4.9416743116
 C       -13.8633976347      -15.9332850686       -4.9095944538
 C       -13.9421712588      -15.7946199654       -6.4791558872
 C       -14.2645681574      -14.3703742801       -6.8586367611
 O       -13.8935212032      -13.4453840461       -6.1326035787
 C       -14.8353864668      -13.9245765116       -8.2585321732
 C       -15.4002596608      -12.4386430223       -7.9151699918
 O       -16.6152120216      -12.3061640312       -7.6104468784
 C       -14.4829845874      -11.2868753481       -8.0240479285
 C       -15.1577940047       -9.9474679446       -7.6852725768
 C       -15.2213180461       -9.6704795441       -6.1863656583
 O       -15.3900569596      -10.5123492783       -5.3168832411
 C       -14.9590688798       -8.1794019112       -5.6134393150
 C       -13.4796821992       -7.7830960104       -6.0205181829
 O       -12.8385802429       -8.6250782042       -6.6230592927
 C       -12.9250996298       -6.4015075098       -5.4841216812
 C       -12.6258025120       -5.3518384954       -6.5635297062
 C       -13.2641872010       -4.0214627465       -6.2505827565
 O       -14.1652720379       -3.9262298130       -5.3740191602
 C       -12.6321399973       -2.8137169570       -7.0073099183
 C       -11.0627775035       -2.8784525313       -7.0043784155
 O       -10.3834631563       -3.6296970543       -6.2830544340
 C       -10.3666727490       -1.8105101682       -7.8373267948
 C        -9.3968972789       -0.9338415380       -7.0276407333
 C        -9.9988106763        0.3817878825       -6.6213570315
 O       -10.9588975548        0.8322448048       -7.3000340800
 C        -9.3975795125        1.3824791816       -5.5584815969
 C        -7.7088594257        1.4282734190       -5.6328843631
 O        -7.1284512652        0.3400394039       -5.6165756542
 C        -6.9063387503        2.6425692035       -5.8891423557
 C        -6.5772760949        2.6201463591       -7.3238501602
 C        -6.0889078042        4.0075051982       -7.9468865590
 O        -6.1524951245        4.9929116341       -7.2373881302
 C        -5.6482460131        3.9889012128       -9.4129979721
 C        -4.7059909182        2.7034930687       -9.5045373113
 O        -5.2003088386        1.6078971262       -9.6683997278
 C        -3.1404028437        2.8901248193       -9.2997298995
 C        -2.3507256108        1.7638411574      -10.1323297424
 C        -0.7504669899        1.9808362253      -10.1954442878
 O        -0.3806875300        2.4778740373      -11.2746125589
 C         0.3210591673        1.5439686679       -9.0664262061
 C         1.6937907792        2.0871536953       -9.3607361135
 O         2.6610762667        1.3337237461       -9.4384057131
 C         1.6892424926        3.6254072430       -9.4642021666
 C         2.5581865059        4.0489977589      -10.6602431707
 C         2.4961547234        5.4986342142      -11.1055956941
 O         1.4767096995        6.1403018686      -10.8082946505
 C         3.4808303352        6.1050985812      -12.1200904234
 C         3.5166312951        5.0856875824      -13.3091799840
 O         4.4732235083        4.4309688345      -13.5447642368
 C         2.1661766330        5.0724327775      -14.1048717986
 C         2.3439239482        5.6360844906      -15.5194430656
 C         3.2158862374        4.7514692414      -16.4718725507
 O         3.5785827086        3.6642080659      -16.1294509920
 C         3.4194137956        5.1264555226      -17.9456507175
 C         5.0459156798        5.0708771864      -18.0872100854
 O         5.4679771215        4.5112344188      -19.0731976208
 C         5.9558329592        5.7054429295      -17.0153011759
 C         7.4796227411        5.5733191617      -17.3102123377
 C         8.0009157304        4.1485741365      -17.2146892670
 O         7.3212737356        3.3230306522      -16.6422172310
 C         9.3878568203        3.7505044797      -17.7648039170
 C        10.4052301446        3.9139621290      -16.4898744558
 O        10.1915895041        4.8077974465      -15.6900544840
 C        11.7048468313        3.0556389552      -16.5215379018
 C        12.3944772611        2.8861614009      -15.1644801286
 C        11.5748470199        1.8982294451      -14.2579171952
 O        10.7177171224        1.1460426109      -14.6745345329
 C        12.0168736982        1.7512134217      -12.7145381401
 C        10.8382018192        1.1123443124      -11.9149991235
 O        11.0537064689        0.1291097567      -11.2497070818
 C         9.4590099973        1.7243922713      -11.9913352892
 C         8.4499252634        0.6400866930      -12.3174262918
 C         7.1673075078        1.0918045162      -12.8878222918
 O         6.9822310989        2.2659385758      -13.2514355984
 C         6.1779593474       -0.0231734426      -13.3422956948
 C         6.3317699999       -0.2268155022      -14.8861340661
 O         6.0514853178        0.6430036239      -15.6394550150
 C         6.7958639809       -1.5890557941      -15.3347248174
 C         6.3152026960       -1.3632774704      -12.5956124253
 C         4.7644100324        0.4603604058      -13.2254132559
 C        13.1751485749        0.7722775022      -12.8607015732
 C        12.4632086395        3.0830626133      -12.1141869591
 C         9.3191880160        2.3425660150      -18.3772741831
 C         9.8279953574        4.8097818119      -18.8400823850
 C         2.6940876916        4.2106938726      -18.9505466694
 C         2.9301384791        6.5366132469      -18.2675082897
 C         3.0152290842        7.5273424715      -12.4875727812
 C         4.8747599415        6.1827062795      -11.4270620680
 C        -0.1973067012        1.8465257642       -7.6228276411
 C         0.2568943956        0.0076200524       -9.3399329399
 C        -6.9684382421        3.5010682522      -10.2849533497
 C        -5.1939511689        5.3764277479       -9.9201461023
 C       -10.2150120179        2.7289378608       -5.5974471657
 C        -9.6568585867        0.6772253768       -4.2360141428
 C       -13.1126232003       -2.8587501532       -8.5044181893
 C       -13.1864026393       -1.5862182943       -6.3306399521
 C       -15.9578919840       -7.2377705903       -6.3096444179
 C       -15.1241426813       -8.1080913541       -4.0922686346
 C       -13.7484935926      -13.8604545306       -9.3263794925
 C       -15.8840506591      -14.9215423305       -8.6691149825
 C       -14.4696872035      -16.7711888517       -2.1261387703
 C       -16.9494476181      -15.8342707220       -2.4954481938
 H       -14.2162006471      -13.3404878704       -0.3265833424
 H       -14.3935114119      -15.0859810580       -0.2191949543
 H       -15.7713069540      -13.9440192671        0.0078643087
 H       -13.3828003875      -16.8265793480       -4.4676500978
 H       -13.2139968332      -15.0830102551       -4.6816940833
 H       -14.6583302392      -16.5210205300       -6.8898791348
 H       -13.0245008350      -16.0409078150       -7.0915721115
 H       -14.0260543568      -11.2847799710       -9.0083704348
 H       -13.7082008808      -11.4102926133       -7.3346125402
 H       -16.1579374311       -9.9888173616       -8.0671669378
 H       -14.7961359416       -9.0153910758       -8.2490116869
 H       -12.0822941399       -6.7016358161       -4.8602009901
 H       -13.6939636110       -5.9950824241       -4.8733745777
 H       -13.0299943456       -5.6553620394       -7.5281100860
 H       -11.5000569811       -5.4471383258       -6.7192603493
 H       -11.1198467040       -1.2850375687       -8.3834407899
 H        -9.7275647492       -2.2511214030       -8.6114260651
 H        -8.5044354437       -0.6395337700       -7.5669771153
 H        -9.0741957631       -1.6882284874       -6.2324502469
 H        -6.0059728233        2.5560672402       -5.2524577646
 H        -7.4581668942        3.5040228834       -5.7046730961
 H        -7.3959591828        2.1599380487       -7.8061759013
 H        -5.7788468551        1.9548172125       -7.6157632953
 H        -2.9417376104        2.8355968958       -8.2512539223
 H        -2.7707968677        3.9197573186       -9.6794004112
 H        -2.7146824366        1.7162173185      -11.0996752632
 H        -2.4882433600        0.8153701986       -9.6161049145
 H         2.0447956524        4.0905062482       -8.5624887877
 H         0.7033089670        3.9516308378       -9.6282219056
 H         2.2713471988        3.5741220296      -11.6452253582
 H         3.6886734860        3.9289349786      -10.5104766899
 H         1.3485769768        5.5577176434      -13.5226385271
 H         1.7618878499        4.0843494920      -14.1974501108
 H         2.8005856367        6.7002911434      -15.4155848127
 H         1.3252223479        5.6898265008      -15.9910842546
 H         5.6297400547        5.2242242817      -16.0679056437
 H         5.6927342882        6.7651491272      -16.9563495409
 H         7.9314594204        6.2345142193      -16.7195264010
 H         7.6068510251        6.0960243418      -18.3255308577
 H        12.3782859556        3.5675769634      -17.2264075325
 H        11.7514238545        2.1393094935      -17.0748580174
 H        12.4717529726        3.8161998726      -14.5549826878
 H        13.4760460016        2.5213994659      -15.1728960171
 H         9.3923824608        2.5550258723      -12.7069810606
 H         9.1511227376        2.1444121080      -11.0645410414
 H         8.4186517155       -0.0824912708      -11.4998558869
 H         8.8106124832        0.0286737124      -13.1380138112
 H         7.8493202044       -1.7289437246      -15.5897400050
 H         6.2225874320       -1.9129485338      -16.1898325740
 H         6.4896318438       -2.3678738472      -14.5387165339
 H         5.5333010975       -2.0848213392      -12.7691516975
 H         6.2545324185       -1.1718552261      -11.4923887185
 H         7.3391626539       -1.7897828974      -12.6931791438
 H         4.6451639110        1.0810558663      -12.2664562440
 H         4.1653724823       -0.3909293279      -12.9964629510
 H         4.3591336398        1.1312540708      -14.1224619596
 H        14.0008918761        1.2542972321      -13.4002703828
 H        12.7565260694       -0.0762881101      -13.3718956806
 H        13.6180357688        0.3826468955      -11.9167245614
 H        13.3575937734        3.4935941935      -12.6347443616
 H        12.5771629674        2.9846502526      -11.0289248547
 H        11.6703600827        3.8419124810      -12.3619070956
 H         8.8029150167        1.6832522234      -17.6828990278
 H        10.2698211076        2.0889475075      -18.6774512930
 H         8.8472191102        2.4693234057      -19.3371913103
 H         9.6366863223        5.8000363481      -18.5408440662
 H         9.3926550923        4.5265129930      -19.7942015579
 H        10.9372368096        4.7753279962      -19.0238698414
 H         3.4163937805        3.4456320592      -19.3437229090
 H         2.2673791475        4.6257797601      -19.8038794132
 H         1.8064821272        3.8855984190      -18.3550145947
 H         3.0414260414        6.8911780577      -19.3120010767
 H         3.4270778107        7.1779426480      -17.5112358565
 H         1.8565404336        6.5997920402      -18.1521166070
 H         2.6018991796        8.1394045822      -11.6631877945
 H         2.3384005399        7.5660343165      -13.2911314764
 H         3.9574351924        8.0031160255      -12.8690894986
 H         5.7961233439        6.3410862233      -12.0987686941
 H         5.1554306947        5.2448340054      -10.9002821372
 H         5.0448376966        6.9257657771      -10.6893731553
 H         0.1080321295        2.8809721473       -7.4315776686
 H         0.1797819720        1.1358086892       -6.8698952536
 H        -1.2785775930        1.8154630835       -7.5190233464
 H        -0.4501856226       -0.6756490635       -8.7794940605
 H         1.1580038722       -0.4439703693       -8.9942261083
 H         0.1723241035       -0.1684413572      -10.4255657175
 H        -7.0546198719        2.4332279398      -10.0015743499
 H        -6.8115816674        3.6248198309      -11.3668817102
 H        -7.8503800044        4.0316058027       -9.9236440564
 H        -5.4151555331        5.4825562676      -11.0223437684
 H        -4.1152713401        5.4938064437       -9.7536778512
 H        -5.7233574778        6.1569919310       -9.3679844600
 H       -11.1699430215        2.4013881336       -5.3276433558
 H       -10.3450007234        3.1164339905       -6.5953562737
 H        -9.8545327282        3.6170151804       -5.0058630781
 H        -9.2637277435        1.0364624941       -3.2783578674
 H        -9.1181513907       -0.2493007978       -4.1914330445
 H       -10.6651997606        0.4009938742       -4.0599789388
 H       -13.2418903479       -1.9104796693       -9.0894716672
 H       -14.1308524288       -3.2801683690       -8.5291893313
 H       -12.5906863398       -3.5632495680       -9.1795986120
 H       -14.2290910617       -1.8321075733       -6.1114131068
 H       -13.0602637558       -0.6251392626       -6.9010258306
 H       -12.6894742898       -1.4014272091       -5.3988977443
 H       -15.6549861216       -7.0380102676       -7.3752855748
 H       -15.9481446965       -6.2704371612       -5.8742969652
 H       -16.9575985941       -7.6613442150       -6.3512009471
 H       -14.2143714550       -8.4197317517       -3.5788339547
 H       -16.1249412710       -8.6438832971       -3.8526212757
 H       -15.2909732799       -7.1075538602       -3.7533801710
 H       -13.0211984868      -13.1684158762       -8.9313404598
 H       -14.2723080699      -13.5814622336      -10.2548724472
 H       -13.3995234391      -14.8890532894       -9.3280038728
 H       -16.2366692545      -15.6114586352       -7.8508995715
 H       -15.6175451156      -15.6868150822       -9.4335621630
 H       -16.7536023749      -14.3845751133       -9.1957041468
 H       -13.4465245834      -16.4703911916       -2.1343846861
 H       -14.6350794111      -17.7048811368       -2.5784777138
 H       -14.6940344449      -16.9945491063       -1.0628900121
 H       -17.4549106615      -14.8658074083       -2.6724258517
 H       -17.0972999730      -16.2506496106       -1.4957623801
 H       -17.3856989767      -16.5189611540       -3.2632479459
 Na      -15.8881920514      -12.7319161116       -5.0027073672
 Na        5.6360550742        2.9100124587      -15.1671000438
