232

 C       -22.6680400023       -6.3795137749       -2.7285597825
 C       -21.3067032653       -5.7965266887       -3.0145329341
 O       -20.3514877639       -5.9756826724       -2.2636088552
 C       -21.0884928074       -5.1105910843       -4.3574514272
 C       -20.1882038766       -3.8568956657       -4.2340275941
 O       -20.0744812801       -3.1651871645       -3.2349317309
 C       -19.6323034001       -3.2687309802       -5.5891265496
 C       -18.5173921292       -2.4149850688       -5.2457608093
 C       -17.5360446157       -3.1246373279       -4.2886426427
 O       -17.6720911243       -4.3177193393       -4.0114007786
 C       -16.4374403198       -2.2584782578       -3.4603865109
 C       -16.1870637370       -3.0814738246       -2.0907264989
 O       -17.0326794566       -2.9816233559       -1.2538473657
 C       -15.1834403982       -4.1971934562       -2.1151835865
 C       -15.2802484687       -5.0369182624       -0.7781849627
 C       -15.6215981708       -6.4527558017       -1.2088040425
 O       -16.7258453566       -6.7271929242       -1.6583252766
 C       -14.5629959194       -7.4978753814       -1.2260584112
 C       -13.3134966582       -7.0381756923       -2.0713117551
 O       -13.4857980454       -6.5778610144       -3.1665040147
 C       -11.8141375815       -7.2669431023       -1.6471281902
 C       -11.3212162887       -8.3355666102       -2.5672206930
 C       -10.0258556778       -8.9396988159       -2.0632084437
 O        -9.7632551878       -8.7468113764       -0.9092194977
 C        -9.1866388836       -9.9034930115       -2.9842565891
 C        -7.9374658798       -8.9690703973       -3.4779168693
 O        -8.1738553033       -7.8245395475       -3.7485471290
 C        -6.6246795563       -9.6835651989       -3.7639204088
 C        -5.5263819254       -8.7142169132       -4.1647964857
 C        -5.9119031696       -7.8754568448       -5.4319678975
 O        -6.0799960251       -8.4658445285       -6.5022635310
 C        -6.0262232403       -6.1907664666       -5.2906557411
 C        -5.0528431462       -5.8606936303       -6.5493775086
 O        -4.0004968472       -5.3163385145       -6.2996960020
 C        -5.4982466539       -6.0810025650       -7.9799515790
 C        -4.3093019181       -5.7261504900       -8.8401003679
 C        -4.6401216174       -5.4311741592      -10.3676634360
 O        -4.4639526194       -6.3087714621      -11.1682124617
 C        -5.0931389272       -3.9589225851      -10.8696392943
 C        -3.8652118734       -2.9836192899      -10.9521330228
 O        -3.7999786997       -1.8775058619      -10.4797663976
 C        -2.5899744179       -3.5148143725      -11.8292166805
 C        -1.5400818600       -2.4037990781      -11.7662464050
 C        -0.5625683637       -2.6260735803      -12.8214316808
 O        -0.6679722009       -1.9586496298      -13.8362007515
 C         0.7782944535       -3.4566240289      -12.7181794207
 C         2.1473139474       -2.5619885302      -12.8684733083
 O         3.0672710617       -3.1025340459      -13.4515795931
 C         2.2464677580       -1.2733601246      -12.1099838645
 C         3.6493939356       -0.6389396373      -12.2496242152
 C         3.8703752855        0.5119918537      -11.2619642144
 O         3.1465601777        0.8174687324      -10.3497596605
 C         5.3096966724        1.1928026283      -11.3613666641
 C         5.1113794539        2.2885080581      -12.3593400870
 O         5.6377615842        2.1549790036      -13.4371459787
 C         4.1563158140        3.4156381071      -12.1390212846
 C         4.9498031269        4.6556129539      -11.5841832767
 C         5.5733142080        5.3126702990      -12.9250724750
 O         4.9218190716        5.2829030812      -13.9348369185
 C         6.9325838323        6.2962721291      -12.8509166685
 C         7.4431890372        6.6816184673      -14.2837986682
 O         7.2219396736        7.7556389179      -14.7609133344
 C         8.3081467168        5.6912289899      -15.0984202076
 C         8.3318741543        6.1969253680      -16.5470407114
 C         6.8844799701        6.2184677189      -17.1953211682
 O         5.9925756734        5.5498802763      -16.7949938511
 C         6.5567198417        7.1634122321      -18.4152090230
 C         7.7930571338        7.1656847153      -19.3703886769
 O         8.4710005690        8.1072464770      -19.5356784820
 C         8.1413514516        5.7665395705      -20.0444578482
 C         9.6180537414        5.6244263877      -20.2219565517
 C        10.2205235938        4.4522920877      -19.4911190076
 O        10.4943726056        4.5527411302      -18.3121694530
 C        10.2407943486        3.1053595630      -20.2436123239
 C         9.1829650173        2.1683704054      -19.5215502098
 O         8.0417065008        2.0610498096      -19.9715853548
 C         9.5210303440        1.5235016037      -18.1388804876
 C         8.4643798587        0.5575613055      -17.6046250189
 C         7.0254580915        1.2062063462      -17.3958162623
 O         6.9927430416        2.2649479096      -16.8140418013
 C         5.7957049757        0.4425692544      -17.7744600524
 C         4.7554248822        1.4305062093      -18.5062619956
 O         4.2253492439        2.2341057497      -17.7718499230
 C         4.7819435427        1.6931783484      -20.0463304697
 C         6.1356373584       -0.7416230220      -18.7953590289
 C         5.0691130535       -0.1516895204      -16.5146327447
 C         9.9002225535        3.1066400963      -21.7376717745
 C        11.6426479272        2.5576282159      -20.2014605290
 C         5.2435505542        6.7262524123      -19.0857634270
 C         6.3119909927        8.6221989640      -17.8971229171
 C         6.5368846975        7.5840075093      -12.1690595093
 C         8.1280013613        5.5841568629      -12.0785190943
 C         5.6644187556        1.8137528966      -10.0637661797
 C         6.4976678471        0.1341326519      -11.8124070087
 C         0.8835300713       -4.1334520307      -11.2689289602
 C         0.8309823751       -4.4819979958      -13.8339007716
 C        -5.7351082678       -4.2212586148      -12.2412685848
 C        -6.1787973460       -3.3070419751       -9.9982900166
 C        -7.4475912891       -5.8255442695       -5.7277600472
 C        -5.5181313759       -5.4729180721       -4.0556992401
 C        -8.5913713484      -11.0155184965       -2.0990694867
 C        -9.8954256265      -10.4101621164       -4.2078939514
 C       -14.2758197641       -7.7694430490        0.2830434238
 C       -15.1053856383       -8.8179325660       -1.8920545093
 C       -15.1658215666       -2.1645416234       -4.3228528294
 C       -16.8543029827       -0.8246990856       -3.0986462073
 C       -20.5941963618       -6.2331731484       -5.3450263720
 C       -22.3586701225       -4.4254458938       -4.9370445759
 H       -23.3896770571       -5.5552614904       -2.6465503345
 H       -22.7545138462       -7.0798747521       -1.9037447813
 H       -22.7479974154       -6.9595424223       -3.5714997627
 H       -20.4303493237       -2.8768317653       -6.1886352781
 H       -19.2445062426       -4.1062781023       -6.1495561022
 H       -18.7500570655       -1.4315602190       -4.8400630518
 H       -17.9449876662       -2.2572855576       -6.1348480277
 H       -14.1894208396       -3.8899946396       -2.3879923134
 H       -15.4632689162       -4.8780728054       -2.9843397871
 H       -15.9118150278       -4.5849717557       -0.0697118737
 H       -14.2841696573       -5.1083037491       -0.1709595425
 H       -11.8828828514       -7.5159255526       -0.6029292452
 H       -11.2385239498       -6.2971718679       -1.7666606229
 H       -11.2661428266       -7.8456939568       -3.5797428878
 H       -12.1488726164       -9.0832764393       -2.6599406910
 H        -6.7724074507      -10.4388722765       -4.5687649050
 H        -6.2273168039      -10.1720229277       -2.8817227547
 H        -4.5893976162       -9.2816874608       -4.4908297386
 H        -5.2129723435       -8.1267757489       -3.3415468756
 H        -6.3894390718       -5.3464428685       -8.2675596096
 H        -5.8430721826       -7.1326540974       -8.1765938928
 H        -3.6427020883       -6.6165714157       -8.8281135497
 H        -3.7305497704       -4.8940283976       -8.4148765643
 H        -2.9148366637       -3.5117426620      -12.8441435914
 H        -2.2915667294       -4.6150237889      -11.7016061882
 H        -1.2509805932       -2.3723238701      -10.7142577458
 H        -2.2034065404       -1.4702539075      -11.8317350435
 H         1.9391451950       -1.4033066853      -10.9956970929
 H         1.3654087425       -0.7051981888      -12.5532453373
 H         4.0270368370       -0.3653640515      -13.2633603025
 H         4.3369046065       -1.3873882895      -11.9008700272
 H         3.3681370112        3.2020865762      -11.3836310223
 H         3.7990598821        3.6545980760      -13.1383646001
 H         5.7006270088        4.4266206557      -10.8737770639
 H         4.2972066922        5.3405528775      -11.1068581981
 H         7.8395165557        4.7100378566      -14.9980807260
 H         9.3556163775        5.4911943752      -14.7755745507
 H         8.9330801778        5.5344461032      -17.2987992460
 H         8.7303428890        7.1372551217      -16.7250708162
 H         7.6518268149        5.8859497783      -21.0653517660
 H         7.6508751504        4.9069310271      -19.5698612154
 H        10.2840348110        6.4162806655      -19.9838449142
 H         9.8789289458        5.3339747544      -21.2694264131
 H         9.7494559245        2.4017812963      -17.6442955110
 H        10.4107570414        0.9266855945      -18.3244354279
 H         8.6582323760        0.2764817027      -16.5256482777
 H         8.4764115601       -0.3946650612      -18.1536042929
 H         3.7855325710        2.1062771631      -20.2851957232
 H         4.8148540598        0.7325716084      -20.6238306659
 H         5.4404446759        2.4263567893      -20.3768283282
 H         5.0734344230       -1.0480877814      -18.8305530632
 H         6.8144449737       -1.5948257875      -18.5940226652
 H         6.4534666547       -0.3269306167      -19.7373272898
 H         4.4451097337       -1.0847690859      -16.6719466194
 H         4.3659482049        0.6379415166      -16.1749667851
 H         5.7915047788       -0.4786438638      -15.8074666883
 H         9.9911142855        2.0995416673      -22.0798660012
 H        10.6961931937        3.6473264135      -22.2304793218
 H         8.8614889756        3.4385425178      -21.8574671916
 H        11.7851145023        1.6169818113      -20.6444252205
 H        12.0144352573        2.5791643747      -19.1913043463
 H        12.2977818220        3.2332558713      -20.7138694329
 H         4.4365436463        7.1790376577      -18.4758028688
 H         5.2695701979        5.6287345906      -19.0176826310
 H         5.2146532789        7.1356153704      -20.0773482970
 H         7.0497726143        9.0711920007      -17.2524193062
 H         5.3092037533        8.6442998209      -17.3884948880
 H         6.1763433128        9.3623020480      -18.7348420436
 H         7.1811692266        8.4810843942      -12.2493038310
 H         6.2809568506        7.4285803770      -11.1724552500
 H         5.5238424605        7.7747846198      -12.4571084865
 H         7.6902717827        5.3334596804      -11.0655036585
 H         8.9453213386        6.2467517384      -11.9676189544
 H         8.4488621032        4.6862450656      -12.6873478019
 H         6.6531498697        2.1897214209      -10.3099382949
 H         5.8595001916        1.0801698262       -9.2481923747
 H         4.9683738943        2.4259900570       -9.6477227918
 H         6.1761922209       -0.7786010604      -11.2466208708
 H         7.3411629115        0.6360656792      -11.2780262771
 H         6.5590038527        0.0915282804      -12.8832156741
 H         1.2910971099       -3.3984602120      -10.5858635316
 H         1.6507733362       -4.9159225133      -11.2603293269
 H        -0.0659511894       -4.5877008797      -10.9051802600
 H        -0.0922409590       -4.9595579464      -14.1146699136
 H         1.4768383620       -5.2098177938      -13.4121608259
 H         1.3046650187       -4.0760887208      -14.7163721264
 H        -6.7050254663       -4.6531454389      -11.9617209995
 H        -5.1908448455       -4.9046016314      -12.8723592309
 H        -6.0209609633       -3.2818328623      -12.7902833379
 H        -6.7796450557       -2.5107759039      -10.4178442403
 H        -5.7402586304       -2.8571656317       -9.1045319933
 H        -6.7596386255       -4.0569132906       -9.5016821993
 H        -7.6386971578       -6.2264591747       -6.7249310757
 H        -7.4838995750       -4.8108046150       -5.7828146160
 H        -8.2853694275       -6.1205914566       -5.1384206923
 H        -6.3276437030       -5.5514025758       -3.3356433106
 H        -5.2506276558       -4.4947594450       -4.3279187915
 H        -4.6031872406       -5.9978000287       -3.7157680023
 H        -9.2107608278      -11.7880639893       -1.7511788555
 H        -7.9444378843      -10.5365411524       -1.3475803042
 H        -7.7997596417      -11.5624465188       -2.6922953468
 H       -10.7255106780      -11.0901603134       -3.9691958167
 H        -9.1968406102      -11.0990936632       -4.6537552095
 H       -10.0783706697       -9.8057387730       -5.0622875522
 H       -13.4738140651       -8.5072444161        0.4825322102
 H       -15.0658994904       -8.1575982811        0.8971670137
 H       -14.0138903767       -6.8684700576        0.8498166881
 H       -15.6756438061       -8.4924978708       -2.8515606945
 H       -15.8586390243       -9.3372353996       -1.2620031996
 H       -14.2105195900       -9.4533386195       -2.0279354988
 H       -14.7426311184       -3.2271062344       -4.5030265913
 H       -14.4637235342       -1.4685659704       -3.8340090984
 H       -15.4260287191       -1.7169647306       -5.2677174446
 H       -17.3879436429       -1.0020055565       -2.1887915126
 H       -17.4280964743       -0.2386826411       -3.8015815237
 H       -15.9403313228       -0.2046294690       -3.0466655567
 H       -19.7465225523       -6.7812484323       -4.9006871441
 H       -20.2860824889       -5.8445668361       -6.2899870711
 H       -21.2569951472       -6.9603252541       -5.6058145120
 H       -22.1952783497       -3.7348762488       -5.8338631207
 H       -22.7809821086       -3.7615905135       -4.1908122169
 H       -23.1737803382       -5.0891733947       -5.1487319052
 Na      -18.3834636219       -4.8689236682       -1.9080881752
 Na        5.4617157753        3.4112604480      -15.5417394588
