232

 C         0.9577828378        6.3241311718      -20.8918571412
 C         2.0822409647        5.8361248204      -21.7675663133
 O         3.1048169011        6.4319155153      -21.9944462348
 C         1.7374780424        4.4164311380      -22.7383895791
 C         3.1850949929        3.7452949518      -22.5849002460
 O         3.3531095801        2.8057245334      -21.7734174315
 C         4.2953894244        4.1874235193      -23.5620935694
 C         5.7489772620        3.9808870347      -23.0060111596
 C         6.2972259236        2.6316538170      -23.3186116326
 O         5.6186102502        1.6464888954      -23.4974405721
 C         7.9282731314        2.3278781650      -23.1657949987
 C         8.0465940085        1.4778244372      -21.8818492121
 O         7.4235417704        1.6637232770      -20.8452690277
 C         9.0328570083        0.2588296872      -21.8058702252
 C         8.5432105784       -0.7911702613      -20.8463466466
 C         7.1389177585       -1.1866706387      -21.1293819349
 O         6.5784270044       -0.8304931258      -22.1021957985
 C         6.3780220043       -1.8720092594      -19.9223175431
 C         5.5847352391       -0.9254388654      -18.8618300626
 O         5.0181786517        0.1266667211      -19.2449232979
 C         5.3981002748       -1.4346232029      -17.4137650975
 C         4.5549223908       -0.4833517741      -16.6118407640
 C         3.0270798936       -0.6809278349      -16.9633119840
 O         2.6393725154       -1.3185605246      -17.9261394164
 C         2.0148726050       -0.1756898721      -15.8794638842
 C         2.1360277689       -1.0299766177      -14.5212699471
 O         3.2408793430       -1.2534416223      -14.1182210194
 C         0.9410192600       -1.6436979333      -13.8537924020
 C         1.2429336004       -1.8420903601      -12.3617463199
 C         0.6878798495       -3.1486966862      -11.9001911803
 O         0.7247535471       -4.0984420611      -12.6614059243
 C         0.0535190703       -3.2322597831      -10.4640848758
 C        -1.3325549705       -2.5228449496      -10.5081620817
 O        -1.6090832538       -1.8045097185      -11.4460602039
 C        -2.2204777734       -2.5476283522       -9.2061264961
 C        -3.8103455711       -2.6384926297       -9.3699131565
 C        -4.3920965795       -2.7662016524       -8.0071807545
 O        -3.9917745929       -3.5577800912       -7.1881779791
 C        -5.6337654885       -1.7186788984       -7.6161921242
 C        -6.6685740472       -2.4634784979       -6.6420041448
 O        -6.9636093731       -2.1725908861       -5.5250564717
 C        -7.2390682541       -3.8207879022       -7.3014199035
 C        -8.3057412549       -4.5040707842       -6.4638182913
 C        -9.6268146098       -3.9209260901       -6.7371758337
 O        -9.6696680692       -2.7384888165       -7.0700729901
 C       -10.9082552919       -4.7717258537       -6.4641279099
 C       -11.0077684000       -5.0554635691       -4.8909097606
 O       -10.6630040955       -4.1802680273       -4.1013733340
 C       -11.5891789929       -6.3585628520       -4.3067419354
 C       -10.7995796471       -6.9086775390       -3.1361744693
 C        -9.6520278086       -7.8404340749       -3.7146872838
 O        -9.4978739874       -7.8028414702       -4.9220716687
 C        -8.8334184897       -8.8644181304       -2.8117717808
 C        -7.6396494817       -8.1420101743       -2.1051090227
 O        -6.5311791945       -8.2350512112       -2.5211370597
 C        -8.0129337592       -7.1442816967       -0.9742158623
 C        -6.9581768950       -6.0911674510       -0.8149747534
 C        -6.6886308205       -5.1799079173       -2.0848932102
 O        -7.5592667575       -4.6992580520       -2.7487139571
 C        -5.2410299305       -4.5792987263       -2.2287360825
 C        -5.4250052610       -2.9925364378       -1.8616038302
 O        -6.3661651704       -2.4042509244       -2.4221719997
 C        -4.4471773309       -2.2675238482       -0.9206223290
 C        -5.3355121354       -1.1111895509       -0.1197316360
 C        -6.3329474076       -1.6412876959        0.8793866358
 O        -6.5087058982       -2.8573779577        1.0070253432
 C        -7.2100725525       -0.5338392073        1.7329193339
 C        -8.2317930721        0.0598708247        0.6519845738
 O        -7.8780105052        1.0319368396        0.0249155341
 C        -9.7200105580       -0.4968490389        0.7702272328
 C       -10.4194411336        0.1080669441       -0.4330441224
 C       -10.0345164574       -0.3818527128       -1.8072762491
 O        -9.1489999942       -1.1970142453       -1.9439359731
 C       -10.7849553106        0.4475899014       -3.0424674419
 C       -10.1694928348        0.0288712112       -4.4161716684
 O        -9.9586854950       -1.1673899404       -4.6425302802
 C       -10.2631089313        1.0109574824       -5.6114212929
 C        -9.5284577654        0.4540276424       -6.8326249622
 C        -8.9474063968        1.6546782527       -7.6274309990
 O        -7.7922748109        2.0058177343       -7.3002561987
 C        -9.6401680726        2.5914437219       -8.7999088268
 C       -10.2736726564        1.7825019662       -9.9442062496
 O       -10.1434893212        0.5820095212      -10.1773401834
 C       -11.0684003123        2.7742342417      -10.9150705370
 C       -10.8865543503        3.2126659933       -8.0400939441
 C        -8.5528435481        3.4354146549       -9.2868981679
 C       -12.2996873815       -0.0013035068       -3.1897203948
 C       -10.8002658120        1.9728835495       -2.6997825476
 C        -7.9529382777       -1.3117765115        2.8892601537
 C        -6.2512896779        0.6139388655        2.3631545074
 C        -4.1474965840       -5.1894314519       -1.3607934172
 C        -4.7070212652       -4.7820441818       -3.6394052671
 C       -10.0394056646       -9.5664460667       -1.9734356833
 C        -8.0435999517       -9.8471399438       -3.8129091267
 C       -12.1304156716       -3.8964077634       -6.8984495493
 C       -10.8895789965       -5.9358072181       -7.4434680102
 C        -4.9227738735       -0.4537058782       -6.8682600859
 C        -6.3854732852       -1.1786269317       -8.7999479669
 C        -0.0606599396       -4.6362576693       -9.9269579559
 C         0.8720269880       -2.3027818110       -9.5357969962
 C         2.3013133385        1.2964038245      -15.4397545626
 C         0.6533249590       -0.3829333585      -16.5318174810
 C         5.2966050067       -2.8096960425      -20.5228431986
 C         7.4226279749       -2.6604330868      -19.1009728132
 C         8.4088668996        1.5970333074      -24.4389259205
 C         8.7611978256        3.5789077621      -22.9645356810
 C         0.6642991990        3.5019942247      -22.3026318298
 C         1.4269023739        5.1279638704      -24.1025866743
 H         0.4442570372        5.5326704676      -20.2531543923
 H         0.1659452618        6.6624323336      -21.5571128016
 H         1.2346307472        7.1291811553      -20.1750981758
 H         4.0823368716        5.1557086504      -23.9713128603
 H         4.1058972374        3.5427898417      -24.4106692836
 H         5.6278591228        4.0292074244      -21.9391116974
 H         6.5544848824        4.7970427662      -23.3014186096
 H        10.0363321266        0.5571793903      -21.4379709516
 H         9.0703533239       -0.0895105392      -22.8147655895
 H         8.6988107866       -0.6283848106      -19.7388375366
 H         9.0744661327       -1.5881190110      -21.1481658510
 H         6.2992002592       -1.7988925544      -16.8466399695
 H         4.7193662540       -2.3850739932      -17.4903959491
 H         4.8311353782        0.5984923431      -16.8004902460
 H         4.6573293995       -0.5728325067      -15.5025252580
 H         0.7587390490       -2.6305811430      -14.3650887739
 H        -0.0456289234       -1.0525330267      -13.9337544849
 H         0.8061999582       -0.9729785822      -11.7904424782
 H         2.3075232243       -1.8156866769      -12.0685577328
 H        -1.9533467085       -1.5642945722       -8.8273625459
 H        -1.9029614985       -3.2963348638       -8.5581446641
 H        -4.0951624331       -3.4242542282      -10.0559722128
 H        -4.1212258712       -1.8088872116       -9.9993516635
 H        -6.3291278268       -4.3946500800       -7.2035907993
 H        -7.6017860043       -3.8228499485       -8.3187312554
 H        -8.0877181678       -4.3793281984       -5.3087715811
 H        -8.2412171711       -5.6322086239       -6.5577647700
 H       -11.8930578112       -7.0837320616       -5.0418850971
 H       -12.5290052980       -5.9871680612       -3.9854113874
 H       -11.4758946645       -7.4179952220       -2.4686387216
 H       -10.4551422325       -6.1526120982       -2.4575274295
 H        -7.9159202748       -7.9050443818       -0.1579189084
 H        -8.9678930343       -6.6563692127       -0.9432824880
 H        -6.0459766059       -6.5408704619       -0.3841674511
 H        -7.4121952455       -5.3133366459       -0.1989424771
 H        -3.6438312957       -1.8676899177       -1.4841287736
 H        -4.0574345703       -3.0158772142       -0.1863958414
 H        -5.7912652989       -0.4321979494       -0.7601240554
 H        -4.5245662983       -0.4938883127        0.3685894047
 H       -10.1607139976       -0.1433725766        1.7363292506
 H        -9.6849436413       -1.5983724136        0.7262382172
 H       -10.2822159787        1.2424269532       -0.4512665253
 H       -11.5211124906       -0.0800714472       -0.2889880985
 H        -9.7010707356        1.8187714623       -5.2407702032
 H       -11.2492269531        1.3188315827       -5.7951172220
 H       -10.4100768322        0.0267333318       -7.3610961135
 H        -8.8023373321       -0.2848941938       -6.4026864981
 H       -10.3659645878        2.7745774222      -11.7200409032
 H       -11.2464651337        3.7202005137      -10.4961276633
 H       -12.0566655849        2.3840392413      -11.2675390095
 H       -10.3941245550        3.7999146342       -7.2091400312
 H       -11.5550161244        2.3827950271       -7.5525447406
 H       -11.5713218813        3.8732254182       -8.5467057411
 H        -8.0056249216        2.9052231627      -10.0494652137
 H        -7.8594018897        3.8104053169       -8.4877568306
 H        -8.9007197570        4.2481969260      -10.0169874716
 H       -12.9177108928        0.5892681460       -3.8723642440
 H       -12.7893551784        0.2070459281       -2.2564564602
 H       -12.4008534750       -1.0160230960       -3.5156669453
 H       -10.8536373825        2.5592204341       -3.6573959625
 H        -9.8214913528        2.2984874240       -2.2124113107
 H       -11.6451033416        2.1414587184       -2.0334154869
 H        -8.6509506948       -0.6368115272        3.3781040112
 H        -7.2680204695       -1.7482540422        3.6526706857
 H        -8.4708779692       -2.1094758544        2.4752423036
 H        -5.2731515769        0.2458107147        2.6114142681
 H        -6.6133944355        1.2165039600        3.1210107694
 H        -5.9940328919        1.2729067022        1.5622687527
 H        -4.0662377373       -6.2506434740       -1.5857939582
 H        -4.3911707592       -4.8584233792       -0.3308373094
 H        -3.3287313245       -4.5919891469       -1.5748166926
 H        -4.7836533717       -5.8471905176       -3.8001581605
 H        -3.6716235315       -4.4232317672       -3.6699093144
 H        -5.2970157322       -4.3259275638       -4.4350196326
 H       -10.7157471486       -8.9323334118       -1.4659312217
 H        -9.8034308164      -10.3655064342       -1.3445126539
 H       -10.6435679854      -10.0506081881       -2.7758215592
 H        -7.6543689316       -9.2626459081       -4.6352405918
 H        -8.8157596795      -10.5445291848       -4.1974324976
 H        -7.1915320185      -10.3362124186       -3.3609297966
 H       -12.0540410400       -3.6896703265       -7.9822379035
 H       -11.9618421655       -2.9337412716       -6.3522816932
 H       -13.0078718491       -4.3012935403       -6.4371991720
 H       -11.7885088432       -6.5868715798       -7.2946257600
 H       -10.0409801655       -6.5950697375       -7.3143004979
 H       -10.7952140397       -5.5453339792       -8.4938292515
 H        -5.6268500899        0.3458297425       -6.7482760997
 H        -4.1604875307       -0.1527378604       -7.5508234888
 H        -4.5412254802       -0.7359277635       -5.8942533121
 H        -6.7772869211       -2.0606415696       -9.3504599784
 H        -5.7442269560       -0.5965336686       -9.4677048594
 H        -7.3049711344       -0.6749253919       -8.6538514456
 H        -0.0014268556       -4.6806041832       -8.8553137395
 H         0.8107926750       -5.1163268211      -10.1498373134
 H        -0.8889893564       -5.1881612764      -10.4717935409
 H         0.5639127967       -1.3065263608       -9.6024125098
 H         1.8893483968       -2.3269004639       -9.6773752745
 H         0.7250735789       -2.6040525966       -8.5067554026
 H         3.3653519229        1.4544533491      -15.4517006359
 H         1.8843631893        1.5090697102      -14.3879973380
 H         2.0717111288        2.1639859156      -16.0563578980
 H         0.5125280423       -1.4501256257      -16.6231601599
 H         0.5221913216        0.1811344561      -17.4141546308
 H        -0.0497684018        0.0386402231      -15.8303285735
 H         5.7830613420       -3.7756742797      -20.7023836991
 H         4.7775464873       -2.4065435841      -21.4511582620
 H         4.5619553603       -2.9828871857      -19.8031442746
 H         7.8595255833       -3.4294702370      -19.7054603637
 H         7.0197390908       -3.3703259278      -18.4118130689
 H         8.2730650203       -2.2237108837      -18.5980929967
 H         7.7038857369        0.8205516821      -24.5094296281
 H         9.3916371329        1.1059831516      -24.3337846302
 H         8.2885205606        2.4421634275      -25.2361793282
 H         8.6306795820        4.2867103381      -23.7652463252
 H         9.7070341968        3.1538862094      -22.7681249221
 H         8.5106804590        4.1008171389      -22.1023582930
 H        -0.2382583840        4.0295993119      -22.0114403427
 H         0.8344765388        2.8208025098      -21.4737257760
 H         0.4245510718        3.0322968299      -23.1945683150
 H         0.4548490024        5.6173403638      -24.0705621057
 H         1.5146433074        4.4903203955      -25.0458445999
 H         2.0276185038        5.9800940362      -24.2268340896
 Na       -8.4298373085       -2.7801556776       -3.7524174959
 Na        5.1603822813        1.2372297723      -21.2328809245
