232

 C         0.8911042884        6.2764336792      -21.1142676523
 C         2.0833165261        5.8161381788      -21.8628082566
 O         3.1126555344        6.4530730932      -21.8629080287
 C         1.8588561296        4.5085376087      -22.7962228386
 C         3.1051273437        3.6117577107      -22.6638145289
 O         3.2540445866        2.7687223208      -21.8237290641
 C         4.3002950799        4.1477052184      -23.4950406186
 C         5.7709131671        3.9920549824      -22.9258776086
 C         6.3683172953        2.6026803337      -23.1849868354
 O         5.5968345395        1.7016113040      -23.5503392174
 C         7.8731145773        2.3466535714      -23.0705655788
 C         8.0414957178        1.4808956854      -21.8442802618
 O         7.3688482699        1.7728621279      -20.8759581939
 C         9.1891814387        0.3129778104      -21.7852889772
 C         8.7079624344       -0.8151737221      -20.8745850891
 C         7.1150237643       -1.0552599594      -21.0913982161
 O         6.5560566954       -0.6915857836      -22.1103389608
 C         6.3163388975       -1.9077117315      -19.8721288987
 C         5.5478112981       -0.9119402074      -18.9608137567
 O         4.9681755108        0.0905470447      -19.3209315198
 C         5.3342072405       -1.4219867021      -17.5903912826
 C         4.5287042766       -0.4513578310      -16.7177793255
 C         3.0156379174       -0.6959974536      -16.8493602098
 O         2.6524527089       -1.3167828017      -17.8672848159
 C         2.0052458957       -0.1755008880      -15.8306661225
 C         2.1830829566       -1.0795050500      -14.5900407942
 O         3.3139144590       -1.2392687129      -14.1744293842
 C         0.9497951885       -1.4725859262      -13.8881048796
 C         1.2720283247       -1.6862837543      -12.4137579416
 C         0.7073344938       -3.0899354946      -11.9754382605
 O         0.6596772906       -3.9899900908      -12.8008625535
 C         0.1173264920       -3.1765521687      -10.5345989025
 C        -1.3941943899       -2.4136849611      -10.5607902484
 O        -1.6947586168       -1.6758032664      -11.4666246161
 C        -2.1829897960       -2.5875795923       -9.2795381747
 C        -3.7374843192       -2.8097707761       -9.4188530285
 C        -4.4057466735       -2.8024409517       -7.9376607628
 O        -4.0175862497       -3.5928734771       -7.1424064460
 C        -5.6143975992       -1.8585499802       -7.5543281604
 C        -6.6252977496       -2.5652451624       -6.6323250515
 O        -7.0006719283       -2.0224095862       -5.5248388030
 C        -7.1911845726       -3.7852407404       -7.3010638555
 C        -8.2776653702       -4.6205149502       -6.5865409600
 C        -9.6275563685       -3.8476361647       -6.6759162787
 O        -9.7544315359       -2.6565176869       -7.0419173094
 C       -10.8925486276       -4.7069181508       -6.3971385914
 C       -11.0143079183       -4.9643064320       -4.8249906628
 O       -10.6376903583       -4.1421786154       -4.0133059718
 C       -11.6080699564       -6.3126920058       -4.3521709049
 C       -10.8480690019       -6.9230294422       -3.1792366771
 C        -9.6839658664       -7.9255940012       -3.6796197562
 O        -9.4587175725       -7.8942007117       -4.9048875581
 C        -8.9588096164       -8.9111143628       -2.7819256095
 C        -7.6927462733       -8.1170704924       -2.0377540219
 O        -6.5946080871       -8.2060620926       -2.5534176379
 C        -7.9069344036       -7.0942745048       -0.9078827767
 C        -6.8530290807       -5.9409049352       -0.8249641257
 C        -6.6426275824       -5.1841023269       -2.0927147620
 O        -7.4330752055       -4.9276865471       -2.9729935045
 C        -5.1357388794       -4.5352639373       -2.3026182768
 C        -5.5018946485       -3.0552032085       -1.9209129012
 O        -6.4936137521       -2.4528174393       -2.3562562959
 C        -4.6577264708       -2.2262764979       -0.9479991224
 C        -5.3364830432       -1.0838507108       -0.1721866505
 C        -6.2882469735       -1.6278094711        0.9027770559
 O        -6.4088661234       -2.8077553161        1.1287781644
 C        -7.2196422063       -0.6453662413        1.8110602693
 C        -8.2244999337        0.0968074786        0.9008011133
 O        -7.8757835231        0.9165920821        0.1038324405
 C        -9.6572447123       -0.4563204325        0.7782757384
 C       -10.4613625318        0.2535858552       -0.3224718395
 C       -10.0381080567       -0.1960016673       -1.7465876618
 O        -9.2816842773       -1.1179260143       -1.9080856084
 C       -10.7255662473        0.4202133996       -2.9424208020
 C       -10.1732404399       -0.0752246919       -4.3857351955
 O        -9.9961672784       -1.2216158065       -4.6307125842
 C       -10.0548108799        1.0206389938       -5.5114474634
 C        -9.5536772645        0.4671684922       -6.9203243127
 C        -8.8888909619        1.6317046926       -7.7159986830
 O        -7.8287363230        2.0062452440       -7.3692632789
 C        -9.6248669375        2.4624307592       -8.7947882410
 C       -10.3418920071        1.7936340219      -10.0076027090
 O       -10.2348027936        0.6014029579      -10.1054134127
 C       -11.0054400719        2.6712397280      -11.0540975937
 C       -10.7057563308        3.2254002389       -7.8762941706
 C        -8.6717523745        3.4455176487       -9.4737566934
 C       -12.1628339755       -0.1867629723       -3.0286082378
 C       -10.7999432474        1.9718144070       -2.8059136266
 C        -7.8926977483       -1.2639086649        3.0463678919
 C        -6.2690420915        0.4401162542        2.2971456053
 C        -3.9899298387       -5.1868607035       -1.3047522667
 C        -4.7351423139       -4.7739519519       -3.8122793969
 C        -9.9383978734       -9.6472097591       -1.8618395760
 C        -8.2765001076       -9.9228079437       -3.6412989606
 C       -12.1122059543       -3.8963413408       -6.8638870714
 C       -10.8112624613       -6.0122479940       -7.3326604943
 C        -4.9656838810       -0.5955382931       -6.9278408534
 C        -6.3318152950       -1.3139347488       -8.7734498005
 C        -0.1459283286       -4.6284716663      -10.0548701745
 C         0.9700140033       -2.2723422309       -9.5234233857
 C         2.3913571710        1.2339837536      -15.4531166005
 C         0.5440325221       -0.2328739237      -16.4158139605
 C         5.1982228642       -2.7799248657      -20.4187321522
 C         7.2655635012       -2.7979268539      -19.0540134195
 C         8.3274662567        1.4911341162      -24.4009455463
 C         8.8140792236        3.6966683152      -22.8332849375
 C         0.6193819070        3.6280079099      -22.4544990653
 C         1.6101926657        5.1236724507      -24.1838325702
 H         0.7434795132        5.6740737140      -20.1976363025
 H        -0.1076884356        6.2862696801      -21.6605733222
 H         1.1550310013        7.2483974754      -20.7058064991
 H         4.0787238155        5.2136639550      -23.5444589281
 H         4.2580686678        3.8960332526      -24.5648731123
 H         5.7205625784        4.2112618120      -21.8254620175
 H         6.3647705561        4.8244631312      -23.3768474075
 H        10.1442250019        0.7105254792      -21.3968645992
 H         9.3239192515       -0.0747641130      -22.9141755776
 H         8.8092542370       -0.6333624531      -19.8050777674
 H         9.3116831850       -1.6778889341      -21.1829650156
 H         6.3016175202       -1.5801191383      -17.0568350309
 H         4.8723695777       -2.4197569581      -17.6084735220
 H         4.7612862897        0.5881467057      -16.9210228961
 H         4.7961024047       -0.5573232360      -15.6764977831
 H         0.6086813371       -2.4098273447      -14.3373599875
 H         0.1655394174       -0.7762968968      -14.0119164562
 H         0.8795963931       -0.8128806221      -11.8172704592
 H         2.3771300477       -1.6161797803      -12.2349286374
 H        -1.9219633335       -1.7367535706       -8.6871846595
 H        -1.7909809089       -3.4902674734       -8.8429154658
 H        -3.9088730711       -3.6320290201      -10.0540547131
 H        -4.0978746648       -2.0389791443      -10.0955427777
 H        -6.2626199768       -4.2721313088       -7.6268150494
 H        -7.7135352577       -3.3442707988       -8.2000223625
 H        -7.9482573101       -4.9408212596       -5.6593622749
 H        -8.4626244891       -5.5511581755       -7.0587219595
 H       -11.6298929821       -6.9886922643       -5.1992164259
 H       -12.7167525024       -6.1395720929       -4.2529452472
 H       -11.4627182161       -7.2909696690       -2.4192832922
 H       -10.3571952774       -6.1241541133       -2.6125971792
 H        -7.8325153316       -7.6354137149        0.1122897823
 H        -8.9178002752       -6.6714396874       -1.0093562398
 H        -5.8795799890       -6.5034913609       -0.6598037530
 H        -7.0725827758       -5.2274829343       -0.0573318728
 H        -3.9382686336       -1.7019162157       -1.7348262920
 H        -4.0327513792       -2.8330422587       -0.3151180957
 H        -5.9430832127       -0.4499770294       -0.8881487883
 H        -4.4950296466       -0.4380156710        0.0921231245
 H       -10.2177322090       -0.4744926682        1.7685257668
 H        -9.5104193935       -1.4872084523        0.4517315469
 H       -10.4716900187        1.3802786102       -0.2959569664
 H       -11.5078339390       -0.1023861093       -0.1552774112
 H        -9.4448483912        1.8398768494       -5.1853046756
 H       -11.0618056214        1.3766371967       -5.6046289924
 H       -10.4619270910        0.0239434341       -7.3114565679
 H        -8.7764726110       -0.2298419244       -6.6408530448
 H       -10.2269008702        2.7051331985      -11.7847833330
 H       -11.4087195290        3.6441867129      -10.6329016832
 H       -11.8490797413        2.1791332144      -11.4837717025
 H       -10.1363355020        3.8475550101       -7.1696957501
 H       -11.5475015417        2.6966906194       -7.3807024535
 H       -11.1957025050        3.9643258648       -8.5467608465
 H        -7.7957841342        2.9367646658       -9.9774010544
 H        -8.2667428411        4.1772787862       -8.7612706383
 H        -9.0760840778        3.9164875074      -10.4159704748
 H       -12.8028368259        0.3232885664       -3.7936571187
 H       -12.7669702797        0.0604207890       -2.1717507276
 H       -12.1311902489       -1.2537917049       -3.3011517896
 H       -11.2486974185        2.4517706419       -3.6233505582
 H        -9.8224491668        2.4377685834       -2.5927360300
 H       -11.5092067653        2.0317998139       -1.9379559208
 H        -8.7287051569       -0.6141863133        3.3823574856
 H        -7.1940607150       -1.4416749414        3.8660949725
 H        -8.2927040727       -2.2662332785        2.7563674219
 H        -5.1807232858        0.3038243751        2.4677440483
 H        -6.6245879131        0.9981808231        3.1480789952
 H        -6.3109114427        1.1527851076        1.5315604796
 H        -3.9476720616       -6.2224609604       -1.5514511240
 H        -4.2411203520       -4.9467183720       -0.2622671093
 H        -3.1051811427       -4.5396962256       -1.4078448423
 H        -4.7969545004       -5.9078366125       -3.9778869964
 H        -3.7924871045       -4.2856238779       -4.0680203453
 H        -5.4659660180       -4.3809074722       -4.4519093870
 H       -10.2021111854       -9.0950191521       -0.9469570674
 H        -9.5493398596      -10.6307444660       -1.6137274652
 H       -10.8606738594       -9.8396042093       -2.3240733195
 H        -7.5720841520       -9.3627698235       -4.2212773731
 H        -8.9239190514      -10.5881069301       -4.2359332788
 H        -7.5899551643      -10.4752590469       -2.9672397638
 H       -11.9929169404       -3.8012439648       -7.9398504222
 H       -12.0205150676       -2.9300556238       -6.4337800584
 H       -13.0021531194       -4.3344126705       -6.4293142658
 H       -11.7402869010       -6.5740481946       -7.2890770081
 H        -9.9767838828       -6.7103015575       -6.9590857465
 H       -10.5263389655       -5.7877738028       -8.3801642297
 H        -5.7011762413        0.1499057289       -6.7096825035
 H        -4.3454922773       -0.2480843053       -7.7111198156
 H        -4.3966047233       -0.8249970229       -5.9882369103
 H        -7.1506397864       -1.9318319284       -9.1973882985
 H        -5.6157938819       -1.1896823811       -9.5256620761
 H        -6.9240389726       -0.4255297934       -8.6716198121
 H        -0.3999262497       -4.5804521252       -9.0714124214
 H         0.7746832602       -5.1848944842       -9.9704070182
 H        -0.7959507376       -5.1448466962      -10.7522873830
 H         1.1548966940       -1.2407608228       -9.8564017191
 H         1.8822330016       -2.7311396210       -9.2450017936
 H         0.4506537766       -2.2437486375       -8.5097101360
 H         3.5301382255        1.4023525487      -15.2176039959
 H         1.7523131137        1.6018824630      -14.6551129584
 H         2.3746663958        1.9737932686      -16.2528092117
 H         0.3492538118       -1.2891551836      -16.4041891282
 H         0.4820689442        0.2210957041      -17.4004508454
 H        -0.1921262542        0.2837441802      -15.8072662080
 H         5.7495188867       -3.6967933362      -20.7967451293
 H         4.6067951028       -2.2924274375      -21.2032930358
 H         4.4988262655       -3.1042899153      -19.6387735148
 H         7.8751788406       -3.5473041801      -19.5030663735
 H         6.6519226289       -3.5785382079      -18.4888896305
 H         7.8961990253       -2.3167869750      -18.3691988502
 H         7.5387642116        0.6832783650      -24.6495908087
 H         9.2760413638        1.0116661689      -24.2689083733
 H         8.4792079304        2.2386681804      -25.0539597558
 H         8.7201328347        4.4276503958      -23.5639318548
 H         9.7404885466        3.1900258519      -22.7481743121
 H         8.6996863326        4.2616792752      -21.8488738421
 H        -0.2917527455        4.1384181495      -22.1239083638
 H         0.8095924303        2.8792193267      -21.6593766924
 H         0.3729188378        3.1805527691      -23.4035532161
 H         0.5864062896        5.6396935453      -24.1734744550
 H         1.6425314931        4.3744433205      -24.9299386677
 H         2.1901472831        5.9901520453      -24.4621331941
 Na       -8.4216358357       -2.8138632231       -3.6897577888
 Na        5.0544776652        1.1858517716      -21.3487831782
