232

 C         0.7698254806        6.3943224783      -21.2874197871
 C         1.9571669692        5.8125802170      -21.9620789340
 O         3.0423311597        6.2475114686      -21.6715619628
 C         1.8728165334        4.5860114313      -22.9567955716
 C         3.1838078100        3.7805369109      -22.6953323713
 O         3.2202249847        2.6847655369      -22.0903855923
 C         4.4779449554        4.3269480672      -23.3375399772
 C         5.8814535933        3.9628952347      -22.7633041303
 C         6.3718216699        2.6549651224      -23.1991843858
 O         5.6407906409        1.8302804092      -23.7150448878
 C         7.9350702446        2.4117765264      -23.0739675524
 C         8.0101649922        1.3782307786      -21.6881166662
 O         7.3569045725        1.7959336980      -20.7477004967
 C         9.1228454443        0.2738532553      -21.5271625652
 C         8.5753442392       -0.8662120126      -20.6450198986
 C         7.0775893709       -1.0867445943      -20.9784212973
 O         6.4369087256       -0.4881147371      -21.8276963237
 C         6.2998118075       -1.9967234812      -19.9113272710
 C         5.5774725741       -0.9729516258      -19.0350531213
 O         4.9983004767        0.0271909346      -19.4952454851
 C         5.4967890896       -1.1866594018      -17.5746536662
 C         4.4386505516       -0.3293376306      -16.8231716546
 C         2.9587343232       -0.6361820838      -17.0586086503
 O         2.5582901027       -1.4206733114      -17.8710886306
 C         2.0560563558        0.0347578500      -15.9467866520
 C         2.2403064672       -0.8434391543      -14.6361156716
 O         3.3129219000       -1.2367400505      -14.2661866564
 C         0.9730818986       -1.2599869108      -13.8249791290
 C         1.2261341915       -1.5524801347      -12.3662075984
 C         0.5336836912       -2.8466003199      -12.0044505432
 O         0.4855123840       -3.8131744512      -12.7535507732
 C         0.0166919303       -3.1095955067      -10.4932091980
 C        -1.3727500196       -2.3737833993      -10.4196316476
 O        -1.8605825840       -1.6742609652      -11.3042541722
 C        -2.2298556556       -2.5212879956       -9.0947105390
 C        -3.6432222869       -2.8920706044       -9.3599762648
 C        -4.4120526861       -2.8991770025       -8.0380966244
 O        -4.0323781290       -3.6205779720       -7.1289349777
 C        -5.5894567322       -1.7917816272       -7.6257013013
 C        -6.6789196934       -2.5373910640       -6.8207737948
 O        -6.8981423167       -2.1545590071       -5.7657510389
 C        -7.1088105296       -4.0289577138       -7.2880453776
 C        -8.2795376635       -4.5828657293       -6.5563931893
 C        -9.5823241408       -3.8193125777       -6.7230734784
 O        -9.6466200139       -2.6370151982       -6.9688448210
 C       -10.9076642126       -4.7284918665       -6.3297515560
 C       -10.9516870763       -4.9528842317       -4.7398595699
 O       -10.3650053669       -4.2469115459       -3.9253554403
 C       -11.6575253215       -6.2295439489       -4.1612376858
 C       -10.8194575687       -7.0253735120       -3.1655769188
 C        -9.8021539773       -7.9811300206       -3.7511733941
 O        -9.3677583897       -7.9859634273       -4.8681474681
 C        -9.0100168789       -8.9254947439       -2.6256090033
 C        -7.7510651065       -8.0523401929       -2.1308327094
 O        -6.6437630610       -8.1227218016       -2.5324066592
 C        -8.0756233713       -6.9700804539       -1.0187217847
 C        -6.7776920517       -6.1721274293       -0.7839481513
 C        -6.5370872835       -5.3528503236       -2.1593688425
 O        -7.2973772501       -5.5467105907       -3.1053845690
 C        -5.2457014630       -4.4542414130       -2.3735119703
 C        -5.7018128257       -3.0476853790       -1.8325186024
 O        -6.6016953685       -2.4142831270       -2.3699051356
 C        -4.7797358886       -2.1686106421       -0.9914361034
 C        -5.6540662058       -1.1463064686       -0.2417640531
 C        -6.2449190111       -1.6605988431        1.0764056323
 O        -6.3058816733       -2.8759843781        1.2628927361
 C        -7.0623735656       -0.6940086997        1.8691106830
 C        -8.1553259469        0.0421817322        0.9153444288
 O        -7.8357058656        0.9311950039        0.1397177776
 C        -9.6092429910       -0.4438735810        0.8233777337
 C       -10.2949017302        0.2698688273       -0.3423610327
 C       -10.0061759193       -0.2698826003       -1.7236134415
 O        -9.2716272124       -1.2226619630       -1.8389397646
 C       -10.7883174622        0.3579407957       -2.9549920765
 C       -10.0970363890       -0.0268124668       -4.3772479228
 O        -9.8604665343       -1.2159331149       -4.5663294501
 C        -9.6482186233        1.0344406396       -5.4293425065
 C        -9.6582116031        0.6439771498       -6.9362224336
 C        -8.8908422776        1.6139739160       -7.7639215693
 O        -7.6514778837        1.7765946523       -7.5638325754
 C        -9.6791857460        2.5732708936       -8.8235869484
 C       -10.4062399835        1.6437213003       -9.9036996622
 O       -10.4466020720        0.4231358184       -9.8333427108
 C       -11.0052498896        2.3583737859      -11.1845241070
 C       -10.6055593996        3.4495716221       -8.0411061150
 C        -8.6664218410        3.5388913338       -9.4171078057
 C       -12.1961983130       -0.3279294851       -2.8320036354
 C       -10.9677918488        1.9224039224       -2.9770735801
 C        -7.6506781038       -1.4652143649        3.0949728444
 C        -6.1297060971        0.4284672222        2.3354175399
 C        -3.9627803521       -4.9558012175       -1.5238113559
 C        -4.7934235308       -4.3470405019       -3.8367201588
 C        -9.7985485233       -9.3423816561       -1.3466586438
 C        -8.5161454216      -10.0910596423       -3.5056440328
 C       -12.2199687756       -3.9535468211       -6.6787990825
 C       -10.8900762604       -6.1023962154       -7.0512512854
 C        -4.8564448981       -0.7200277952       -6.8487922893
 C        -6.2356873685       -1.2394875906       -8.8596624404
 C        -0.0962779373       -4.7101625995      -10.3842054981
 C         0.9750360820       -2.5246677914       -9.4451584172
 C         2.4909216698        1.4881681184      -15.5413470901
 C         0.6248129776        0.0277609509      -16.4560963696
 C         5.1775787191       -2.7240134840      -20.8481467354
 C         7.1973721808       -2.9889130212      -19.1621692938
 C         8.3196608411        1.6973008650      -24.4432811386
 C         8.7952894504        3.6367149169      -22.8768127346
 C         0.6803199078        3.6821146482      -22.6345335428
 C         1.8513136232        5.0266438563      -24.4532944683
 H         0.6372856176        5.9406660982      -20.2991670577
 H        -0.1167702116        6.2332291746      -21.8248075757
 H         0.9395933230        7.4524340859      -21.0769170640
 H         4.4363919667        5.4012470656      -23.6323571481
 H         4.5457169511        3.8677013309      -24.3519522717
 H         5.9338415494        3.9606117525      -21.6932289529
 H         6.5117908990        4.8160897164      -23.0907995758
 H         9.9809794280        0.7866727693      -21.0958560846
 H         9.3263966564       -0.0653602224      -22.4613919057
 H         8.6031268542       -0.8520139887      -19.5212761019
 H         9.1239883547       -1.7584699071      -20.9994106602
 H         6.4153350789       -1.0618604523      -17.0512141447
 H         5.2479590736       -2.2430363961      -17.3937509765
 H         4.6432539886        0.7310945561      -16.8554592750
 H         4.5346357285       -0.4738972099      -15.7386521570
 H         0.5128891125       -2.0787642368      -14.3455306770
 H         0.2676657835       -0.3849015405      -13.8523003987
 H         0.8859120227       -0.7667583783      -11.7340348627
 H         2.3049331688       -1.5562142187      -12.2382266892
 H        -2.2489238855       -1.4858620787       -8.6131905286
 H        -1.7952638896       -3.2588348434       -8.3991132789
 H        -3.6344513385       -3.9164338894       -9.8272907510
 H        -4.1227926273       -2.3253191806      -10.1767671073
 H        -6.1492162860       -4.5626832748       -7.1198241826
 H        -7.2643288708       -4.0253282987       -8.3540658490
 H        -7.8058377862       -4.6326799733       -5.5043831857
 H        -8.4379227442       -5.6701500958       -6.6818595271
 H       -12.1144006283       -6.8383124559       -4.9735193865
 H       -12.5762189886       -5.9056575125       -3.6808231419
 H       -11.4912821341       -7.6036046533       -2.4325292233
 H       -10.3529227282       -6.3553152201       -2.4313674289
 H        -8.3089817989       -7.2393221733       -0.0111002133
 H        -8.9108055092       -6.3147894834       -1.3302526986
 H        -6.0517197383       -6.9093187370       -0.5808924960
 H        -6.9816836220       -5.5410641805        0.1114919132
 H        -4.0843904147       -1.8607556956       -1.6769635943
 H        -4.2398244120       -2.8107839644       -0.2377021793
 H        -6.4076851887       -0.8250963889       -0.9261685000
 H        -5.0143989841       -0.2567394287       -0.0490445798
 H       -10.1391060091       -0.3153687473        1.7357196528
 H        -9.5000799435       -1.5225068877        0.6321168983
 H       -10.0664025456        1.3056170144       -0.3807276795
 H       -11.3554452216        0.2031144162       -0.2033722814
 H        -8.5272701992        1.2002733058       -5.2476371089
 H       -10.2125559909        1.9969479568       -5.2276802846
 H       -10.6859212127        0.6678638386       -7.2425667001
 H        -9.1943569427       -0.3450170014       -6.9845993690
 H       -10.1812099053        2.3966982792      -11.9411902769
 H       -11.5595804249        3.2033956903      -10.9340558047
 H       -11.7651554867        1.6284595479      -11.6170864847
 H       -10.1571395273        3.7862466130       -7.1339549008
 H       -11.3543444518        2.7431606744       -7.6789676602
 H       -11.1424926099        4.2070682970       -8.5047063924
 H        -7.7646905490        3.1313931193       -9.7460628272
 H        -8.3682361796        4.2525791516       -8.6477986315
 H        -9.0087141694        4.1766168610      -10.2307184592
 H       -12.9377070406       -0.2549202837       -3.6027003688
 H       -12.7546351455        0.1930858283       -2.0372400982
 H       -12.0107313553       -1.3843167712       -2.6435898060
 H       -11.9524106160        2.1959009933       -3.4561596322
 H       -10.1089383356        2.3208912154       -3.4768210337
 H       -11.1637288517        2.2765304250       -2.0165611826
 H        -8.3073425722       -0.7505733288        3.5936842100
 H        -6.8514820661       -1.7852570082        3.8019491726
 H        -8.1859242906       -2.3436230495        2.8051207371
 H        -5.3360811184        0.0270853532        2.9704754192
 H        -6.6047522814        1.1432756876        3.0467588816
 H        -5.6227560567        1.1356492442        1.5853068701
 H        -3.8987530675       -6.0123309403       -1.8199547787
 H        -4.1297881073       -4.9173396223       -0.4412533601
 H        -3.1669247812       -4.2980557208       -1.7382724369
 H        -4.5286747266       -5.2756530800       -4.2256622131
 H        -4.0893696269       -3.5291630343       -3.9555992657
 H        -5.6667153886       -3.9247404517       -4.4278963541
 H        -9.6047386950       -8.5901291403       -0.5962032076
 H        -9.3367394842      -10.2811349488       -1.0200774034
 H       -10.9300145743       -9.5107720865       -1.2617500772
 H        -7.6424200318       -9.6812994049       -4.0437640435
 H        -9.3380247790      -10.5215937533       -4.0956926921
 H        -8.0952277470      -10.8785243954       -2.8991141330
 H       -12.1418608005       -3.6238651646       -7.6907992773
 H       -12.2052756821       -3.1155948332       -5.9733302153
 H       -13.0561943921       -4.5661720330       -6.4634386057
 H       -11.9096450243       -6.4885647737       -7.2290506454
 H       -10.2204125159       -6.7884629939       -6.6536275007
 H       -10.5246701896       -5.9116520450       -8.0560316204
 H        -5.5175805459       -0.1086013530       -6.1951990184
 H        -4.3137150744       -0.0799103434       -7.5948479421
 H        -4.1473378379       -1.2375834408       -6.2341543494
 H        -6.7921164437       -1.8823209299       -9.4969767737
 H        -5.4797668872       -0.7459681640       -9.5221746412
 H        -7.0576519113       -0.5842409355       -8.6378215302
 H        -0.3885103109       -4.9351279895       -9.3115576962
 H         0.8607866563       -5.1855912144      -10.5692372003
 H        -0.7953030022       -5.0610525267      -11.2127042659
 H         1.5639417671       -1.6846001840       -9.9017159985
 H         1.6631362151       -3.2727969450       -8.9817852977
 H         0.4720827637       -2.1247818892       -8.5490585660
 H         3.2899288433        1.4365172597      -14.9133605008
 H         1.7210583929        2.1289751075      -15.1063743091
 H         2.9461324512        2.0252610518      -16.3648083965
 H         0.2055118184       -0.9976169139      -16.5550821954
 H         0.7630351312        0.5438552450      -17.4100362260
 H        -0.0633529995        0.6429869508      -15.8412852502
 H         5.6363105192       -3.2100022194      -21.6773817160
 H         4.4238665605       -1.9751669971      -21.1650651572
 H         4.6273306682       -3.4119636030      -20.2515309865
 H         7.7199032156       -3.6329875284      -19.8816655336
 H         6.7906328504       -3.7708971274      -18.5887987925
 H         8.0296317140       -2.5508325020      -18.5517882447
 H         8.0374061482        0.7165088131      -24.3525399274
 H         9.4451965508        1.8504925657      -24.4396699812
 H         8.1713736643        2.3305534401      -25.4057384903
 H         8.4677907148        4.3226301216      -23.7657652568
 H         9.9143662022        3.4209614227      -22.7729766086
 H         8.4679436629        4.1919426832      -22.0199572311
 H        -0.3098179470        4.0555824303      -22.9763082010
 H         0.6031351759        3.6029074581      -21.5372392057
 H         0.7831429074        2.6836143103      -23.1010495253
 H         1.1467649334        5.6892627540      -24.8378671418
 H         1.9302148104        4.0877313381      -25.0785405689
 H         2.7496189399        5.5976018932      -24.5712924954
 Na       -8.5352460693       -2.8202142090       -3.7109159809
 Na        4.7255763126        1.1119416304      -21.6161240303
