232

 C         0.6502001013        6.4226767946      -21.7086701792
 C         1.9806024697        5.7675706507      -22.0243322633
 O         3.0058819012        6.2497613479      -21.5578894101
 C         1.9527074834        4.5997004471      -23.0720119114
 C         3.2886159205        3.8511294867      -22.7970507036
 O         3.2818861831        2.7594292807      -22.2784522752
 C         4.5856686461        4.4879441316      -23.1881985095
 C         5.8477350067        3.8781276329      -22.4678436891
 C         6.5171138944        2.7641385228      -23.3022183856
 O         5.7680527350        1.9268768574      -23.8197662709
 C         7.9876832221        2.3885920203      -23.1018124873
 C         7.9746083270        1.5665333477      -21.6909041804
 O         7.3223106100        1.8688566249      -20.7378530239
 C         9.0273305489        0.4042192191      -21.5626490462
 C         8.6343945139       -0.6279738380      -20.5476888017
 C         7.0093924024       -1.0147213046      -20.9765796549
 O         6.4904547690       -0.4963102027      -21.9782981190
 C         6.1446845971       -2.0522925285      -20.1474187534
 C         5.4069198967       -1.0164704419      -19.1073065254
 O         4.8120445473       -0.0649642987      -19.5463804048
 C         5.4547647222       -1.1665763627      -17.6074555410
 C         4.5936925044       -0.1716545772      -16.8641002113
 C         3.0909282882       -0.5242252858      -16.9694189894
 O         2.7587800198       -1.3207615692      -17.8045872067
 C         2.0595558980        0.1897775735      -15.9334997727
 C         2.0727085272       -0.6101373025      -14.5977976435
 O         3.1828073227       -1.0128255060      -14.2844882484
 C         0.8787478657       -0.9402695419      -13.8153921543
 C         1.1302915154       -1.4452616088      -12.3249670418
 C         0.4292190641       -2.7877552214      -12.0010827671
 O         0.2721573575       -3.5828833749      -12.8890165787
 C        -0.0248009759       -3.1100166998      -10.5141028533
 C        -1.3297942839       -2.3345341502      -10.3085010364
 O        -1.8083679949       -1.7789589013      -11.2510886063
 C        -2.0295612217       -2.5064589841       -8.9743826613
 C        -3.5806838022       -2.8324692881       -9.3089347789
 C        -4.4158147509       -2.9270196093       -7.9830500208
 O        -4.1514637116       -3.7572245535       -7.1337770090
 C        -5.5958947068       -1.9020988591       -7.6450746229
 C        -6.6864012977       -2.7038237639       -6.8997538449
 O        -6.9480768568       -2.2136109795       -5.7343809230
 C        -7.1276702729       -4.1261806512       -7.2540487657
 C        -8.1774699125       -4.7210153124       -6.2971766447
 C        -9.5517919171       -4.0154528017       -6.5201850918
 O        -9.6993800661       -2.9574215912       -7.0567580238
 C       -10.8164202973       -4.8088138594       -6.1164598034
 C       -10.7879105813       -5.1483368142       -4.6010105722
 O       -10.0037246569       -4.5484320627       -3.9093996083
 C       -11.6758014474       -6.1768395124       -4.0202033868
 C       -11.0107572456       -7.0478927396       -2.9622869594
 C        -9.8836044043       -7.9087977325       -3.5542778786
 O        -9.6351292661       -7.8800654109       -4.7189235016
 C        -9.1039975594       -8.8126115987       -2.5291172964
 C        -7.7521610669       -8.0628542335       -2.1188367376
 O        -6.6745445360       -8.4009014804       -2.6224253356
 C        -7.8347021272       -7.0526627705       -0.9918945233
 C        -6.6232234870       -5.9902999840       -1.0206707038
 C        -6.4877833364       -5.3305222528       -2.3541877139
 O        -7.2197882247       -5.4365694176       -3.3102345971
 C        -5.2264958115       -4.3204892486       -2.4681311668
 C        -5.7431783845       -2.9979645383       -1.9348654780
 O        -6.7921567776       -2.5749047378       -2.3369169796
 C        -4.9467087450       -2.1896947897       -0.9382624838
 C        -5.5596819906       -1.0157996554       -0.1966065552
 C        -6.2320398679       -1.6563304956        0.9682785680
 O        -6.2005709869       -2.8261622725        1.2865231078
 C        -7.0098200977       -0.7064946194        1.9560281566
 C        -8.0029058809        0.0713482006        0.9484415879
 O        -7.5439035065        0.9914320964        0.2880331335
 C        -9.4654839270       -0.4106719971        0.7039622055
 C       -10.1950254304        0.2440277343       -0.4428346170
 C        -9.9738734425       -0.3624385993       -1.8373376211
 O        -9.2147227613       -1.3116275318       -1.9632046735
 C       -10.7773719137        0.3164250355       -3.0042398866
 C        -9.9839750176       -0.0088682964       -4.3411979717
 O        -9.9015900728       -1.1512503645       -4.6997914119
 C        -9.3439160230        1.1424112538       -5.1889176046
 C        -9.7972106894        0.8695416631       -6.6568121301
 C        -8.8532463160        1.7366337939       -7.7165211475
 O        -7.7372988565        1.3268637405       -7.8245854682
 C        -9.6720377261        2.5593408639       -8.7733504669
 C       -10.3773111944        1.5654220948       -9.6894811128
 O       -10.5619525511        0.4534729555       -9.3158912867
 C       -10.8660309387        2.0735495562      -11.0308508003
 C       -10.8819489907        3.3573528600       -8.2531503748
 C        -8.5807125574        3.4292513947       -9.5178679991
 C       -12.0817689012       -0.4875027009       -3.1106309658
 C       -11.0466677352        1.8445641713       -2.6337554277
 C        -7.8109363297       -1.4175398684        3.0701473508
 C        -6.0996704763        0.3484832607        2.5322475376
 C        -4.0441211386       -4.9457122328       -1.6900863677
 C        -4.9380203852       -4.0310089330       -3.9898878420
 C       -10.0922571684       -9.1542356820       -1.3161808814
 C        -8.5629331532      -10.2366442250       -3.0853278283
 C       -12.0633387247       -3.8764535786       -6.2893359247
 C       -10.9123078195       -6.0252458188       -7.1009062216
 C        -4.9176868714       -0.8127849408       -6.6962896256
 C        -6.0881651654       -1.2104481948       -8.9241400226
 C        -0.3932065455       -4.6582611042      -10.3146538461
 C         1.0141293075       -2.7669135959       -9.3705543654
 C         2.5729710324        1.6310474768      -15.7423531994
 C         0.6677480717        0.2748664447      -16.6606970457
 C         5.0916472093       -2.7802635986      -21.0838221361
 C         6.9602423169       -3.1359270450      -19.4135513324
 C         8.5639903939        1.4625206165      -24.1507357290
 C         8.8331662947        3.6471731930      -22.7677757234
 C         0.6583534759        3.5965643141      -22.7681173188
 C         1.7930330385        5.1642202847      -24.5672281996
 H         0.0690144724        5.9045371912      -20.9509781109
 H         0.0377196705        6.3890256693      -22.6627357785
 H         0.7697144156        7.4563072999      -21.3490149629
 H         4.5877254973        5.5467528550      -23.0231875689
 H         4.6848887291        4.4865112268      -24.2598685417
 H         5.4788470789        3.6256150105      -21.4069259351
 H         6.4640346644        4.7576589926      -22.3624565044
 H        10.0284290108        0.8647921798      -21.3393311997
 H         9.0672773403       -0.0141692917      -22.6391783867
 H         8.6298526650       -0.1970638595      -19.5889899318
 H         9.2970624845       -1.5278568439      -20.5463847987
 H         6.5498547111       -0.9515280809      -17.3021368305
 H         5.3152834547       -2.2138358098      -17.2523937000
 H         4.7979340308        0.9045003966      -17.1427881270
 H         4.8267782401       -0.1140657235      -15.7777902315
 H         0.4186946384       -1.8600609821      -14.3788663255
 H         0.1369115062       -0.1377486718      -13.8282592773
 H         0.8764435261       -0.6319025400      -11.5978059326
 H         2.2369925826       -1.5560334487      -12.2402236120
 H        -2.1354455236       -1.6032514652       -8.4345444040
 H        -1.5099428234       -3.2038623005       -8.3057423715
 H        -3.7560594052       -3.8270795639       -9.7144691972
 H        -4.0271002931       -2.1674642450      -10.0508882588
 H        -6.1959729870       -4.6604593938       -7.3752826159
 H        -7.5751944139       -4.1638937868       -8.2727960409
 H        -7.9493372223       -4.8446096816       -5.2467238311
 H        -8.2024506415       -5.8013048513       -6.5670433839
 H       -11.9412305201       -6.8088105805       -4.8380660759
 H       -12.6493186820       -5.8056381612       -3.6882259360
 H       -11.8048659754       -7.7356725965       -2.7760923633
 H       -10.8471093072       -6.6028512757       -1.9741720737
 H        -8.0162550578       -7.5171046064        0.0025599524
 H        -8.7471047845       -6.4984074109       -1.2234850576
 H        -5.6221473524       -6.4894176788       -0.9441660071
 H        -6.7459692409       -5.2413578367       -0.2545493135
 H        -4.1014886906       -1.8693748069       -1.6726704694
 H        -4.4528594293       -2.8036502359       -0.2642192109
 H        -6.2367139026       -0.4986129051       -0.9269984826
 H        -4.7937590664       -0.3503193162        0.1073362503
 H        -9.9666815053       -0.0825075788        1.6783425412
 H        -9.4600664772       -1.4966049368        0.8108678070
 H        -9.8023720793        1.3040613042       -0.5206549048
 H       -11.3143783065        0.3327330909       -0.2914954737
 H        -8.3038904214        1.0395301858       -5.2675210666
 H        -9.6257715992        2.1106792917       -4.8745460249
 H       -10.8996624998        1.1166412140       -6.6607580063
 H        -9.5715601802       -0.1627473726       -7.0430895235
 H        -9.9656900398        2.2943783471      -11.5631680375
 H       -11.5454826501        2.9404926385      -10.7865254349
 H       -11.4451622064        1.4187866169      -11.5740730582
 H       -10.5909878084        4.1081272060       -7.4856769807
 H       -11.7264837802        2.8392393960       -7.8131501930
 H       -11.2895272914        3.9848769152       -9.1316174001
 H        -7.9549079452        2.7524789156      -10.2048089091
 H        -7.7481123498        3.7398773714       -8.8775717739
 H        -8.8177804286        4.3772292251      -10.0164782855
 H       -12.5787422945       -0.1138856047       -3.9876873520
 H       -12.8438038123       -0.4390657590       -2.3499826218
 H       -11.8483511526       -1.5135520195       -3.3437025876
 H       -11.3377265890        2.3801562688       -3.4912577037
 H       -10.0609200561        2.1604903516       -2.3073092722
 H       -11.9792656932        1.9852769345       -2.0293356845
 H        -8.0090237995       -0.6950552229        3.8217603486
 H        -7.1929399612       -2.1437965683        3.4778553807
 H        -8.7532648027       -1.8864877999        2.7298354789
 H        -5.3715937495        0.0117528440        3.2268563060
 H        -6.6318815711        1.0697477595        3.1106056620
 H        -5.6352644448        0.9256567883        1.8120118060
 H        -3.7788081435       -5.8971317756       -2.1116461524
 H        -4.4066620845       -5.1342974839       -0.7030996979
 H        -3.1989487526       -4.1808770173       -1.6972435692
 H        -4.4880724122       -4.9686584770       -4.3875401987
 H        -4.3310067475       -3.1691314539       -4.2217279308
 H        -5.8547714934       -3.7972028735       -4.4810267798
 H       -10.9318344404       -8.4830681370       -1.1113943035
 H        -9.6515638646       -9.5818231380       -0.4026706698
 H       -10.5807506896       -9.9800737713       -1.6942290877
 H        -7.8994445801      -10.0991200827       -3.9228890224
 H        -9.4124259802      -10.8805439473       -3.1963966778
 H        -7.9886962738      -10.7403518272       -2.2941695714
 H       -12.0429496184       -3.6861119745       -7.3794311808
 H       -11.9907001138       -2.9848169800       -5.6659325955
 H       -12.9496736041       -4.5486634044       -6.0676708043
 H       -11.7921262398       -6.5660552351       -6.8975860482
 H        -9.9504052730       -6.5998747456       -7.0557671815
 H       -11.0735631943       -5.7460661102       -8.1209669051
 H        -5.6901368423       -0.0733627035       -6.5638530148
 H        -4.1129453045       -0.3135221734       -7.2002868084
 H        -4.5728117954       -1.2184875138       -5.7293834489
 H        -6.3571494322       -1.8141158838       -9.7987406486
 H        -5.4391667035       -0.4713163046       -9.3033598888
 H        -7.0869803452       -0.7624381656       -8.7692355024
 H        -0.6607091086       -4.8273807479       -9.2790896272
 H         0.4869858970       -5.2614212449      -10.6791250426
 H        -1.1524240263       -4.8936801813      -10.9610770357
 H         1.2779229252       -1.7712845398       -9.3095904922
 H         1.9460627141       -3.3448000823       -9.4368468819
 H         0.5780850619       -3.0818577497       -8.4860086997
 H         3.6122965817        1.8965709021      -15.3080423616
 H         1.8723573028        2.1982930952      -15.1391983270
 H         2.4445676367        2.1165690466      -16.7620208386
 H         0.4627593479       -0.6925929564      -17.0789375695
 H         0.7675957498        1.0031664220      -17.4656700036
 H        -0.1314972494        0.5057727656      -15.9845668018
 H         5.7187355613       -3.2494373926      -21.8346329582
 H         4.4558674306       -2.1131988353      -21.5653931972
 H         4.4530759636       -3.5255586046      -20.5142188259
 H         7.4809931401       -3.9043761895      -20.0004146504
 H         6.3759352384       -3.7658017522      -18.6969755491
 H         7.7258463734       -2.7338072948      -18.7934665280
 H         7.8418987361        0.5821079002      -24.1345505865
 H         9.5908870648        1.3805164267      -24.1299187751
 H         8.4606207950        2.0315918150      -25.0072938007
 H         8.9465387370        4.4196029303      -23.4718728828
 H         9.8112310219        3.2220643493      -22.6273660702
 H         8.5125299290        4.0284265550      -21.7833265875
 H        -0.1671755795        3.5352811545      -23.4633265304
 H         0.3301964164        3.7434606586      -21.7584341432
 H         1.1082129650        2.6093124984      -22.6626019979
 H         0.7685086529        5.5865922142      -24.7558010405
 H         1.9215094247        4.4128606742      -25.2836800746
 H         2.4843322655        6.0494478389      -24.7530114569
 Na       -8.4145386760       -2.8724415720       -3.9178809855
 Na        4.6387716385        0.9066197938      -21.7822880809
