232

 C         0.4929408775        6.5366369791      -22.5341468749
 C         1.7987759448        5.7108424259      -22.2866603021
 O         2.5464403890        6.0380041072      -21.4204427160
 C         2.0768137275        4.4623869918      -23.2648109485
 C         3.4459735734        3.7868342043      -22.7968446356
 O         3.4180059876        2.6542530471      -22.3082324199
 C         4.6630348817        4.7007319145      -22.8743981083
 C         6.0654471336        4.1572286008      -22.4575639081
 C         6.6015865892        2.9294370941      -23.1623698505
 O         6.0045388932        2.1890852437      -23.9060339021
 C         8.1225945635        2.4842698224      -22.7545161791
 C         7.8831046979        1.6166356427      -21.5520669819
 O         6.8983340085        1.7629341016      -20.8176710004
 C         8.8335926554        0.5034233747      -21.2695572310
 C         8.2209460637       -0.7058096356      -20.5324454053
 C         6.8755459886       -1.0826839496      -21.1067354935
 O         6.5841426635       -0.7203626974      -22.2784876491
 C         5.8321081297       -1.8998306711      -20.2897374313
 C         5.2178676910       -0.7638913650      -19.4057524525
 O         4.5463385788        0.0922914972      -19.8916023135
 C         5.3572799460       -0.9915915108      -17.9182575884
 C         4.4699419828       -0.0928197145      -17.0269481048
 C         3.0175219890       -0.4406413451      -16.9202131064
 O         2.5267817766       -1.3188566982      -17.6183446963
 C         2.1297326768        0.3570010731      -15.9592384682
 C         2.2436094263       -0.2683232946      -14.4960194183
 O         3.2908953696       -0.2758187722      -13.8690435479
 C         0.9199991984       -0.7951827799      -13.9768453000
 C         0.8854242018       -1.2594789548      -12.5061055678
 C         0.1868360083       -2.6094425728      -12.3838252718
 O        -0.1772033105       -3.2542488704      -13.3608760014
 C        -0.0512773237       -3.0505580359      -10.8616139434
 C        -1.2296541655       -2.1553621588      -10.3391094805
 O        -1.5922401780       -1.1109868384      -10.9008501425
 C        -1.9409365829       -2.7294403969       -9.0640350729
 C        -3.4377356483       -2.4513264515       -9.0907939073
 C        -4.2706020804       -2.9044121940       -7.9238605115
 O        -3.9642199927       -3.7620095616       -7.1079331756
 C        -5.5615684974       -2.1514097961       -7.6619322194
 C        -6.6807046098       -2.9914021785       -6.6860916341
 O        -7.0505663947       -2.5201265950       -5.6991736049
 C        -7.0427811508       -4.3629365750       -7.1694902028
 C        -8.2051794295       -5.0653914021       -6.4733143593
 C        -9.4760153381       -4.2347052846       -6.5262055700
 O        -9.5303435938       -3.2663245729       -7.2958262712
 C       -10.9286750933       -4.9370604525       -5.8416313053
 C       -10.8244468305       -5.4060467323       -4.4243880189
 O        -9.9923324451       -4.9493132166       -3.6388477835
 C       -11.9254858116       -6.3506277199       -3.8231227468
 C       -11.4235517866       -7.1438925552       -2.6068949545
 C       -10.1556643738       -7.9794609105       -3.1132211854
 O        -9.6554600111       -7.7780117715       -4.2070495560
 C        -9.3469411808       -8.9827334259       -2.1194572571
 C        -7.8471491304       -8.2877967892       -2.1155586469
 O        -6.9572809562       -8.9426494349       -2.6205617884
 C        -7.8133896832       -6.8487763725       -1.6683533402
 C        -6.4060081285       -6.3314564116       -1.5712114833
 C        -6.2573741660       -5.0964207523       -2.4399153765
 O        -7.1620432297       -4.8645032805       -3.2896718383
 C        -4.9354281593       -4.1334936873       -2.5605199604
 C        -5.5221743467       -2.7724653853       -1.8131462826
 O        -6.4317897447       -2.1311860051       -2.2715224189
 C        -4.4889242349       -2.2013711169       -0.8521263325
 C        -5.2198977617       -1.0716655564       -0.0215153728
 C        -6.1278728654       -1.6871615204        1.0067975369
 O        -6.1811964865       -2.9160559320        1.0502632550
 C        -6.9723395625       -0.7106859525        1.8956225840
 C        -7.9223713885        0.1145899413        1.0596228303
 O        -7.6089040073        1.2417436868        0.7873945410
 C        -9.2237900720       -0.5387551399        0.5561000553
 C        -9.7810083547        0.3247359764       -0.5354144005
 C        -9.9890724734       -0.4958929195       -1.8691531340
 O        -9.5652595674       -1.6314828378       -1.8708189746
 C       -10.6639318696        0.0983318828       -3.1503821318
 C        -9.7899197487       -0.2607891979       -4.4649349875
 O        -9.6251260027       -1.4618539201       -4.6107501059
 C        -9.0927556186        0.8490946462       -5.2307567658
 C        -9.8954723080        1.7216966619       -6.1938549974
 C        -9.1029735339        1.8500677594       -7.4945915223
 O        -7.9509134578        1.3831848051       -7.5806580106
 C        -9.6624810614        2.3988447644       -8.8583144994
 C       -10.5734827089        1.2975876015       -9.4612710386
 O       -11.3763996932        0.6693687719       -8.7859281166
 C       -10.5203385300        1.2473951092      -11.0525861386
 C       -10.7136440998        3.5585895135       -8.8071485274
 C        -8.4403174613        2.9461490803       -9.6821700216
 C       -11.9808366644       -0.7534489298       -3.3369620037
 C       -10.9668394619        1.6072683083       -3.0580142257
 C        -7.6857048636       -1.5643974108        3.0097375456
 C        -5.9831787462        0.2170665643        2.6160150814
 C        -3.5994935938       -4.8173918929       -1.9844470653
 C        -4.6828432990       -3.6741600659       -4.0046402119
 C        -9.9243192169       -8.9757706575       -0.6969361289
 C        -9.2234863382      -10.4845492261       -2.6424779772
 C       -11.9121271879       -3.7593618200       -5.7175663967
 C       -11.5134013637       -5.9890105059       -6.7958184458
 C        -5.1137768963       -0.9823549081       -6.7384862631
 C        -6.2214024719       -1.5407869696       -8.8697390702
 C        -0.3367301386       -4.5360088927      -10.9720599503
 C         1.1642687446       -2.7813805086       -9.9880823873
 C         2.6123043702        1.8037036249      -15.8583815103
 C         0.6119627808        0.4339835246      -16.3384257361
 C         4.7735358436       -2.3988137644      -21.3295127654
 C         6.4164302165       -3.1023692054      -19.6030139737
 C         8.6745978854        1.4530482908      -23.9796994816
 C         9.0740272024        3.6860743609      -22.5780598683
 C         0.8413165156        3.4607281061      -23.1042813341
 C         2.3347126108        5.0978178671      -24.7506480862
 H        -0.2094269183        5.8504126653      -22.0070167424
 H         0.2458980966        6.5579411975      -23.5818714521
 H         0.4528529171        7.5322456711      -22.0268845861
 H         4.4437177668        5.6313934602      -22.3631081826
 H         4.9333175695        5.0055416604      -23.8648423007
 H         6.0784857303        3.8694168995      -21.3508974665
 H         6.7050152365        5.0175714616      -22.5752563585
 H         9.7949669010        0.8021250136      -20.6401531542
 H         9.1389803904        0.0702231535      -22.2213243933
 H         8.0140576030       -0.5482037752      -19.4730376579
 H         8.9487000886       -1.5618148074      -20.5351597446
 H         6.4611473154       -0.8990789906      -17.5886548434
 H         5.1122080267       -2.0751038730      -17.7872142987
 H         4.5870780775        1.0070732730      -17.2110429406
 H         4.8561879886       -0.2072689322      -15.9658566605
 H         0.6317972197       -1.7469461165      -14.5205300082
 H         0.1257043671       -0.0380927459      -14.1284933230
 H         0.3701817618       -0.5476454363      -11.8618723520
 H         1.9644650709       -1.3352470913      -12.1459342916
 H        -1.4318315704       -2.2954172283       -8.2351506576
 H        -1.6476797628       -3.7484561936       -8.8792782095
 H        -3.8403719275       -3.0229692998       -9.9333828493
 H        -3.5685162515       -1.3894173826       -9.2419978207
 H        -6.1344460250       -4.9714081291       -6.9221966739
 H        -6.9058300372       -4.2887587071       -8.2343723930
 H        -7.7890847264       -5.2100918741       -5.5105820662
 H        -8.4740780089       -5.9739086271       -6.8599663977
 H       -12.2890674031       -6.9827358023       -4.6498658868
 H       -12.6896844968       -5.6409734899       -3.5112558542
 H       -12.1160056543       -7.7742753309       -2.0341982654
 H       -11.0241541983       -6.3659793941       -2.0108645507
 H        -8.2163044638       -6.8842052888       -0.6735965338
 H        -8.6210822199       -6.2945580924       -2.2092630795
 H        -5.7587351463       -7.1369690677       -1.8983776522
 H        -6.0692118261       -6.0632808867       -0.5273719125
 H        -3.6803611682       -1.7768619954       -1.4541201576
 H        -3.9547702504       -2.9989989698       -0.1605411766
 H        -5.6474179127       -0.4061157998       -0.7776920099
 H        -4.3965576829       -0.5488410050        0.4573259651
 H        -9.9638679421       -0.8079012820        1.3229126641
 H        -8.9565869854       -1.5798057692        0.2277619065
 H        -9.1260197704        1.1391216282       -0.8991132414
 H       -10.7752973777        0.8079479003       -0.3055257174
 H        -8.2684763642        0.3681509854       -5.6841260256
 H        -8.7029321973        1.3873168974       -4.3889798342
 H       -10.1890254362        2.7395719283       -5.8510512916
 H       -10.8821152373        1.1962615167       -6.4342813121
 H        -9.5675890104        0.8311717256      -11.4119161641
 H       -10.5681262195        2.2492329065      -11.2653073106
 H       -11.4182904364        0.7092151018      -11.4395973593
 H       -10.4901294013        4.4916188515       -8.2162716753
 H       -11.6893334521        3.2100562252       -8.3364984175
 H       -10.9753374399        3.9922371863       -9.7639284323
 H        -7.5004769075        2.4250427475       -9.7601869970
 H        -8.1868115571        3.8936032762       -9.0877887928
 H        -8.7497996135        3.4647591158      -10.6340503672
 H       -12.2972162410       -0.7161517393       -4.3238089045
 H       -12.7343443387       -0.5202420068       -2.6204875242
 H       -11.8477584425       -1.7559604221       -3.0477284765
 H       -11.5120036519        1.9292586956       -4.0148825889
 H       -10.0682112471        2.2297574896       -2.8623330616
 H       -11.4794277551        1.7237196539       -2.1443890146
 H        -8.6432770203       -1.2116963102        3.2839105776
 H        -7.0259535721       -1.6118682043        3.8665957180
 H        -7.7795259338       -2.5279386285        2.5974206153
 H        -5.2784089398       -0.2214454002        3.2587311923
 H        -6.5545216824        0.8678731418        3.2171820162
 H        -5.4205225309        0.8512485167        1.9418001607
 H        -3.2571076639       -5.6338107927       -2.6664558631
 H        -3.7297844402       -5.2118420403       -0.9613847873
 H        -2.7405972500       -4.1772341594       -2.0730375061
 H        -4.5182999386       -4.4981757522       -4.6355506276
 H        -3.7679694674       -3.1018228561       -4.1655951590
 H        -5.5555463048       -3.0805690780       -4.3441698012
 H        -9.6604674299       -7.9892815765       -0.3783069731
 H        -9.3937735944       -9.6323855815       -0.0111765855
 H       -11.0427038997       -9.0562591018       -0.5792907756
 H        -8.6340223021      -10.4053369399       -3.5692778626
 H       -10.1720387156      -11.0135899826       -2.7829383867
 H        -8.6310480761      -10.9307338187       -1.8672685612
 H       -11.9390594956       -3.3506733755       -6.7280949232
 H       -11.3212690012       -3.0688441795       -5.0683274578
 H       -12.9292800569       -4.0568315388       -5.4541572210
 H       -12.6060512312       -6.1433868262       -6.5493968171
 H       -11.0792377562       -6.9433195304       -6.6510048893
 H       -11.3369718803       -5.6228406273       -7.8081953365
 H        -5.9230291927       -0.5819715753       -6.0997890528
 H        -4.6741424662       -0.1309348114       -7.3075229223
 H        -4.3111644517       -1.3762746123       -6.1885537658
 H        -6.2037402699       -2.2107125054       -9.6760795641
 H        -5.6885695389       -0.6345791491       -9.2470371815
 H        -7.1806255851       -1.0646323744       -8.8032959542
 H        -0.6641655273       -4.9758256970      -10.0463135930
 H         0.4900505410       -4.9454533141      -11.3971934220
 H        -1.2689135127       -4.5881524527      -11.5955186843
 H         1.4472079894       -1.7857393835      -10.1382989440
 H         1.9587806806       -3.3724653638      -10.2559353933
 H         0.9190824293       -2.8824750819       -8.9385187707
 H         3.5479180082        1.7295153795      -15.3569325562
 H         1.9807512566        2.5320180413      -15.1899480299
 H         2.6332330272        2.2519196668      -16.8963306479
 H         0.0226785825       -0.4767171215      -16.4308903182
 H         0.6193742842        0.8449522758      -17.3477830050
 H         0.1396036357        1.1588106246      -15.7031448090
 H         5.3140967616       -2.8710334207      -22.1204679522
 H         4.2660831147       -1.5138201485      -21.7840431653
 H         4.0943302985       -3.0835754852      -20.9067010386
 H         6.8548218265       -3.8660611960      -20.2611012983
 H         5.5999867106       -3.4979908380      -19.0756096385
 H         7.1560645121       -2.9444032190      -18.7725079684
 H         8.1359399648        0.5456016540      -24.0739789785
 H         9.7141485444        1.2825328709      -23.8223222174
 H         8.4291423814        2.0203780871      -24.8450985594
 H         9.1658404753        4.2871656555      -23.5025226346
 H        10.0941111723        3.3603799429      -22.4955249855
 H         8.8446246756        4.2482029324      -21.7545993774
 H        -0.0444029057        4.0296148147      -22.9521775550
 H         1.0525546579        2.6260139629      -22.4745593706
 H         0.7114290496        3.0279663936      -24.1123075328
 H         1.3787973689        5.2155583400      -25.1959256671
 H         2.8991450121        4.4171117979      -25.4752205081
 H         2.9258061176        6.0001387950      -24.7231540023
 Na       -8.5408829204       -3.1370173225       -3.3983293987
 Na        4.9665326674        0.9682932607      -22.0832420314
