232

 C         0.5481275393        6.4859727161      -22.6827627727
 C         1.7718932348        5.6305467577      -22.3672312539
 O         2.5397984560        5.9035312505      -21.4565857767
 C         2.1073432343        4.4441650216      -23.2903240233
 C         3.4555703331        3.8657413737      -22.8193134342
 O         3.4884389352        2.7787144501      -22.2577984241
 C         4.6744299853        4.7254285446      -22.8974229972
 C         6.1126501615        4.2104081757      -22.4619705114
 C         6.6596348550        2.9404891441      -23.2031651330
 O         6.0084721405        2.3095267457      -24.0067115203
 C         8.1090670666        2.5276967812      -22.8118891109
 C         7.7770789813        1.5543873789      -21.4715742740
 O         6.8263502737        1.6980975974      -20.7020864907
 C         8.8373558086        0.4046157529      -21.2191385416
 C         8.2484927164       -0.8285508777      -20.4540026281
 C         6.8753331919       -1.1589249545      -21.2025873293
 O         6.5927046752       -0.6580836954      -22.2807638623
 C         5.8443796252       -1.9403332645      -20.4118424980
 C         5.1183019134       -0.7834460630      -19.4026690347
 O         4.6727612350        0.2137546511      -19.9309016610
 C         5.2834898096       -1.0290209338      -17.9001785723
 C         4.4821624876       -0.0022117864      -17.1197661664
 C         2.9668569096       -0.4317671880      -16.9387654956
 O         2.4458910085       -1.3678786081      -17.5654478953
 C         2.1150783264        0.5276770147      -16.0265924355
 C         2.1906878985       -0.1215118059      -14.5230512370
 O         3.2789572327       -0.1549814407      -13.9909743400
 C         0.8864897155       -0.8054434329      -14.0383932168
 C         0.9297456508       -1.2267694101      -12.5847582319
 C         0.1925981220       -2.5192270557      -12.3858480701
 O        -0.2716466396       -3.2018246346      -13.2462860641
 C        -0.0589298834       -3.0665345284      -10.9316790643
 C        -1.2292335286       -2.2350365121      -10.3140876848
 O        -1.4319268184       -1.1333338357      -10.7675000855
 C        -2.1373784349       -2.7909130993       -9.1781395361
 C        -3.5541619029       -2.3252485896       -9.1258767439
 C        -4.3305098042       -2.9312677064       -7.8671734714
 O        -3.8296350321       -3.7491703564       -7.1441143396
 C        -5.6626133092       -2.1499646215       -7.5666017513
 C        -6.6712916809       -3.0501831980       -6.7633707640
 O        -7.0177910282       -2.6480074724       -5.6789635563
 C        -7.0674897193       -4.5187815902       -7.1772376332
 C        -8.1865951726       -5.0675809846       -6.2133337965
 C        -9.5352437700       -4.3934047446       -6.5533583492
 O        -9.6109020982       -3.3429090260       -7.2119134170
 C       -10.9013459125       -4.8570548429       -5.8844212278
 C       -10.8235112223       -5.3743959234       -4.3752705824
 O       -10.1183857396       -4.9317739160       -3.4911721687
 C       -11.9433412981       -6.3677920346       -3.7837944842
 C       -11.2766307954       -7.1724563582       -2.6617950101
 C       -10.1462755894       -8.0386409137       -3.1013984862
 O        -9.6411907733       -7.7996598932       -4.2305189480
 C        -9.3749327161       -8.9294539520       -2.0994413759
 C        -7.9228716813       -8.4371757094       -2.1459064394
 O        -7.0221686168       -9.0944311858       -2.5486736893
 C        -7.7626815721       -6.9944911387       -1.5976631419
 C        -6.3224887317       -6.3521021738       -1.6985386827
 C        -6.1899051339       -5.0782784952       -2.6020623638
 O        -7.0662194058       -4.8320508848       -3.3541907948
 C        -4.9410810435       -4.0971342964       -2.5882866083
 C        -5.2250643494       -2.7461529943       -1.9006410574
 O        -6.2964939519       -2.1625104067       -2.1632482111
 C        -4.3346919398       -2.1087665821       -0.7762290959
 C        -5.0926864893       -1.0130188523       -0.0000456784
 C        -6.0567485217       -1.6844421554        0.9792121661
 O        -6.3413446470       -2.8759504253        1.0405126331
 C        -6.8818890832       -0.7310912035        1.9728764625
 C        -7.8418565930        0.1078726331        1.1251137569
 O        -7.6630882458        1.2398858136        0.8111146087
 C        -9.2128106331       -0.5154964838        0.5722607877
 C        -9.7319971468        0.3449345457       -0.6030488500
 C        -9.9673026001       -0.5877036830       -1.8357669626
 O        -9.5926517138       -1.7189796836       -1.7946865025
 C       -10.7188619427       -0.0060259520       -3.1242938615
 C        -9.7341087264       -0.3486583413       -4.4046683175
 O        -9.6321568939       -1.5039490773       -4.7762878355
 C        -9.0860192981        0.7474275581       -5.2637883974
 C        -9.9054391779        1.6991826529       -6.2227535797
 C        -9.0750864834        1.8783562330       -7.4989593601
 O        -7.9512894245        1.4882846881       -7.5616861251
 C        -9.6732677678        2.4939336446       -8.8436424069
 C       -10.5827441725        1.2891146163       -9.4639776859
 O       -11.4101367865        0.8005723781       -8.7581193159
 C       -10.5611669023        0.9852406843      -10.9593944248
 C       -10.6992665725        3.6573627656       -8.9099111548
 C        -8.4801038265        2.8341304541       -9.6973485141
 C       -12.0581706038       -0.6599039612       -3.4170651434
 C       -11.0092151593        1.4939576432       -3.0630271814
 C        -7.6576353664       -1.6414361648        3.0383583357
 C        -5.8846569793        0.1606248427        2.6850986513
 C        -3.6920026996       -4.6493055117       -1.9263428133
 C        -4.4549189629       -3.6599366503       -3.9534750353
 C        -9.9954921659       -8.8362299318       -0.6270982763
 C        -9.3277522719      -10.4578409149       -2.5411520935
 C       -11.9867612289       -3.6541216808       -5.7594346989
 C       -11.5752354097       -5.9755555822       -6.7757650735
 C        -5.2878705748       -0.9775362148       -6.5786083296
 C        -6.2921322678       -1.6725209745       -8.9352890616
 C        -0.4341174669       -4.5588858920      -11.0832369713
 C         1.2478645652       -2.8512503042       -9.9108239910
 C         2.6975355577        1.9865001301      -15.9472158897
 C         0.6514976546        0.5606037639      -16.5299014534
 C         4.6521016862       -2.2543634877      -21.3908745853
 C         6.3648262473       -3.1006556275      -19.5873525082
 C         8.6546539015        1.6669540894      -23.9566906028
 C         9.0928859281        3.5480819094      -22.5303252274
 C         1.0217922958        3.3896972809      -23.2658345701
 C         2.2060063316        5.0799579482      -24.7069176778
 H        -0.2769134670        6.0424248555      -22.0476784242
 H         0.3369372543        6.4419106143      -23.7740704289
 H         0.7585380587        7.4876148084      -22.3658223649
 H         4.4657633381        5.5301938923      -22.1604292397
 H         4.8667233226        5.2626659402      -23.8323233043
 H         5.8770645805        3.8101653275      -21.5015116069
 H         6.7638418679        5.1278495746      -22.2776179319
 H         9.4611427521        0.7045404282      -20.4483080531
 H         9.4418511860        0.1265429228      -22.1327228171
 H         8.0798796012       -0.5070525727      -19.3238851133
 H         8.9291841845       -1.6479060517      -20.3655158089
 H         6.3526747246       -0.9439879668      -17.7369320691
 H         5.0062719202       -2.0868056888      -17.6881133451
 H         4.4709035016        0.9512778039      -17.6287173256
 H         4.9413648734        0.1888792310      -16.1525035243
 H         0.6774760086       -1.6800357193      -14.5879600413
 H         0.0580994403       -0.0962375861      -14.2228895203
 H         0.5215366132       -0.4779319828      -11.8770549404
 H         2.0421403663       -1.3140057072      -12.3711754703
 H        -1.6625518704       -2.6552826240       -8.1878310941
 H        -2.0445288984       -3.8332111945       -9.2375130052
 H        -4.0691619134       -2.6729219905       -9.9924886105
 H        -3.5097374237       -1.2526041262       -9.0774329434
 H        -6.1026495496       -5.0980410750       -7.1466509139
 H        -7.2851063948       -4.5557172933       -8.2596259483
 H        -7.8708850697       -4.8797656456       -5.2347388802
 H        -8.3849532253       -6.0802809961       -6.3633988759
 H       -12.2691373579       -7.0932212874       -4.5820732302
 H       -12.7973355745       -5.7799597000       -3.3306734688
 H       -11.9462435972       -7.8796006145       -2.1847491856
 H       -10.8904600281       -6.4447060447       -1.9838439827
 H        -8.1928987902       -6.8691473483       -0.5716719961
 H        -8.5774290077       -6.5209434215       -2.2278904995
 H        -5.7234336996       -7.1790464912       -2.0657257782
 H        -5.8619023489       -6.1125032896       -0.7176705026
 H        -3.3708474322       -1.6936961275       -1.1808392407
 H        -3.9992795726       -2.9113908463       -0.0346690597
 H        -5.5845249005       -0.4382972614       -0.7838623108
 H        -4.3041148982       -0.3233018635        0.4850455196
 H        -9.9937774970       -0.6223035579        1.3260426114
 H        -9.0726517063       -1.6121979801        0.3231730989
 H        -9.0252452969        1.1231177253       -0.9656997828
 H       -10.6984850381        0.8493631672       -0.4942783214
 H        -8.3711963075        0.1513484669       -5.8075680756
 H        -8.4800358408        1.2967814493       -4.5683346864
 H       -10.0286663583        2.7213895115       -5.8874345923
 H       -10.9025728950        1.3634899480       -6.3825110480
 H        -9.6694221321        0.3794063118      -10.9725558838
 H       -10.2659776154        1.9400466698      -11.4498596047
 H       -11.4482236447        0.4554240752      -11.3057924865
 H       -10.3443650461        4.6547001620       -8.5703406543
 H       -11.4687524677        3.3937900343       -8.0948724505
 H       -11.2321347478        3.8780079414       -9.8062651422
 H        -7.7728546740        1.9945439489       -9.9150695721
 H        -7.8085447905        3.5814247890       -9.1909025715
 H        -8.8076822770        3.3833764112      -10.6689022234
 H       -12.2838094842       -0.5294114413       -4.4764478179
 H       -12.8206183501       -0.3967758389       -2.7542269095
 H       -12.0429558279       -1.6985733546       -3.2058319707
 H       -11.0567588305        1.8698588460       -4.0537638659
 H       -10.1772418723        1.9834175905       -2.5604372902
 H       -11.7939806818        1.6966262946       -2.3847093016
 H        -8.5056675300       -1.1212141223        3.4670776495
 H        -6.9397322352       -1.8871400447        3.8435446449
 H        -7.9778755434       -2.5253276624        2.5780460017
 H        -5.0494498418       -0.3087088586        3.2454418087
 H        -6.3924625490        0.8375410009        3.3098193290
 H        -5.4114810235        0.7323752959        1.9498343739
 H        -3.3835629459       -5.5274163127       -2.4952401194
 H        -3.8243815067       -4.9331048487       -0.8162624166
 H        -2.8146044290       -4.0222178237       -2.0231809233
 H        -4.1477679022       -4.4571166229       -4.6670210249
 H        -3.5060467004       -3.1042950700       -3.8152187025
 H        -5.1473360976       -3.0442261360       -4.4153195228
 H       -10.2201992977       -7.8433783199       -0.3472562161
 H        -9.1964505077       -9.0976138956        0.0131258063
 H       -10.8957678639       -9.4647213150       -0.4740101141
 H        -8.9992886865      -10.4645490793       -3.5527808570
 H       -10.3270819002      -10.8843277605       -2.4606077031
 H        -8.6367199158      -10.9322811921       -1.8453904651
 H       -12.1387224502       -3.2530580805       -6.7913840390
 H       -11.5003144246       -2.9069024131       -5.1126545022
 H       -12.9205800200       -4.0943312154       -5.4446790035
 H       -12.4760672230       -6.3518536601       -6.2717074009
 H       -10.9759657591       -6.8721290173       -6.8427145038
 H       -11.7287655178       -5.5345331133       -7.7809107045
 H        -6.1625809640       -0.5257006458       -6.1408077359
 H        -4.7229903070       -0.2217420980       -7.0941857603
 H        -4.6158599472       -1.3845793721       -5.8093680978
 H        -6.3555006455       -2.5697809257       -9.5672555440
 H        -5.7437760031       -0.9431761762       -9.4864020262
 H        -7.1911007396       -1.1467809207       -8.9227992837
 H        -0.5079272373       -4.8888770675      -10.0965598077
 H         0.3370548062       -5.0950944974      -11.5875045355
 H        -1.4372265373       -4.6476837216      -11.4657725336
 H         1.6258032209       -1.8189364927       -9.8928608232
 H         2.0168129952       -3.4941915155      -10.2300512476
 H         0.9047236389       -3.1150972509       -8.8636583929
 H         3.7636505380        1.8941676347      -15.4632247005
 H         2.1227158557        2.7218307761      -15.3257678724
 H         2.7050642233        2.3774747702      -16.9599536409
 H         0.2733199757       -0.3875341851      -16.8578767089
 H         0.6683026069        1.1513565519      -17.4217124999
 H        -0.0412147958        1.0726196178      -15.8589085747
 H         5.0253232721       -2.6914508143      -22.3468980547
 H         4.0644238262       -1.3314804412      -21.6555997467
 H         4.0542890901       -2.9984058023      -20.9330110162
 H         6.9090786715       -3.8758380415      -20.1016634608
 H         5.5048947270       -3.5585845055      -19.0034370578
 H         7.0007393573       -2.7258487338      -18.7746081583
 H         7.9823146737        0.7257894846      -24.0665847390
 H         9.6035900766        1.3007003571      -23.6929669152
 H         8.5313586929        2.2322602787      -24.8109773271
 H         9.2266588257        4.1305796780      -23.4231646997
 H        10.0860717429        3.2154853642      -22.3359290573
 H         8.7881959883        4.2398632889      -21.6750772538
 H         0.0792608527        3.9490889417      -23.2522309875
 H         1.1537267915        2.6314456940      -22.4612327872
 H         1.0648316174        2.8558716328      -24.1969589138
 H         1.1960853476        5.2196732970      -25.2036503297
 H         2.8086831729        4.3826019432      -25.3338339405
 H         2.8115035720        5.9421112751      -24.7122203176
 Na       -8.4454226512       -3.0629867595       -3.3719633037
 Na        4.9362702126        1.0204165535      -22.0094690759
