232

 C         0.5198587761        6.4734687546      -22.7307147036
 C         1.7549504254        5.6515861098      -22.3462158564
 O         2.4511067802        5.8798740525      -21.3591908392
 C         2.2133871313        4.4037855119      -23.4414195773
 C         3.5516433690        3.8955360678      -22.8075567779
 O         3.5432773110        2.8110877124      -22.2454011981
 C         4.7810094551        4.8082124903      -22.9761392996
 C         6.0751808300        4.1983030284      -22.4082129538
 C         6.5914846583        2.9932268987      -23.1860383875
 O         5.9126457000        2.4812252795      -24.0951978771
 C         8.0470820345        2.3968065366      -22.7932049582
 C         7.8921146351        1.4616682567      -21.4650363338
 O         6.9610684821        1.7275212374      -20.7403981968
 C         8.9405119956        0.4437213733      -21.0710082535
 C         8.1559062750       -0.8325947146      -20.4546607895
 C         6.8553809478       -1.1449606086      -21.2424523331
 O         6.7105428789       -0.6246563608      -22.3096346873
 C         5.6687718539       -1.9056190103      -20.4083632129
 C         5.1727412922       -0.8478201303      -19.4382113198
 O         4.7326227583        0.2462734392      -19.8083520971
 C         5.1484629127       -1.0470910645      -17.9350717839
 C         4.3794070849        0.0763395288      -17.1910261267
 C         2.8883317770       -0.2606235087      -17.0214493148
 O         2.4822958338       -1.3188081663      -17.4022398361
 C         2.1051890536        0.7034587712      -16.1506730513
 C         2.1206166601       -0.0210818020      -14.7010371896
 O         3.1494967965       -0.0386942247      -14.0915818585
 C         0.9519910425       -0.7678023705      -14.1017784776
 C         1.0701249789       -1.2422390529      -12.6120711145
 C         0.2288422797       -2.5129266047      -12.3170791399
 O        -0.3164242705       -3.0441589518      -13.2613510229
 C        -0.1120441661       -3.1560579540      -10.8781418892
 C        -1.2698614523       -2.2752743907      -10.3087542926
 O        -1.3858267972       -1.0992419907      -10.5352165128
 C        -2.1967997652       -2.9580871370       -9.2850194799
 C        -3.5198416982       -2.2584336204       -9.1300745925
 C        -4.3100514616       -2.7829919425       -7.8783439720
 O        -3.7945492648       -3.6988300013       -7.2578840999
 C        -5.7101959095       -2.2512740470       -7.4888804669
 C        -6.6514982374       -3.1953846571       -6.6613736979
 O        -7.1117752501       -2.7737218981       -5.5324603769
 C        -7.1900205477       -4.5980644685       -7.1482047626
 C        -8.3061078797       -5.0732937549       -6.1873535999
 C        -9.6583984432       -4.3770479723       -6.4125204432
 O        -9.6640030469       -3.4987700378       -7.1733732821
 C       -11.0109506533       -4.8710483534       -5.7091845197
 C       -10.8838102744       -5.3672537790       -4.2462055256
 O       -10.1104092628       -4.7374004068       -3.5510220503
 C       -11.8612662517       -6.3951326799       -3.8050138624
 C       -11.3491008668       -7.1956362013       -2.6497539195
 C       -10.0723290767       -8.0451577430       -3.1233388295
 O        -9.6514871431       -7.9513108912       -4.2499572650
 C        -9.3633689873       -8.9118721694       -2.0379231362
 C        -7.9102534055       -8.4515280192       -2.0880923967
 O        -6.9825585822       -9.1629150415       -2.4452172823
 C        -7.5049083668       -6.8769061748       -1.6207113197
 C        -6.0545181700       -6.3593456096       -1.8488881484
 C        -6.0494008718       -5.0495037727       -2.7093159582
 O        -6.9825018469       -4.8140697708       -3.4114120521
 C        -4.7959227048       -4.1035936674       -2.5118696850
 C        -5.2369786490       -2.7644868216       -1.7973531044
 O        -6.2706974192       -2.1675245122       -2.1097331862
 C        -4.3285989930       -2.0704753636       -0.7790379220
 C        -5.0313468030       -1.0551774790        0.1334808130
 C        -6.1248615245       -1.6929305756        0.9785454317
 O        -6.3577383196       -2.8695752372        0.8814814751
 C        -6.8250369315       -0.7269444844        2.0483546328
 C        -7.8905283222        0.1534839020        1.1427828662
 O        -7.5274117966        1.2970736785        0.8784834769
 C        -9.1718853868       -0.4760478134        0.5854783971
 C        -9.7753298382        0.2238558650       -0.6259272705
 C       -10.0087132645       -0.6813846621       -1.8890142484
 O        -9.6525136114       -1.8447760293       -1.8367185649
 C       -10.6785198292       -0.0455218955       -3.2097562506
 C        -9.8349596637       -0.3692778000       -4.4806206131
 O        -9.6373728638       -1.5268213482       -4.8055586743
 C        -9.0565984367        0.7390307945       -5.2685140654
 C        -9.9227433775        1.5879583205       -6.2155865857
 C        -9.0680612875        1.9493300189       -7.5693136041
 O        -7.9123267195        1.6101508699       -7.5520912914
 C        -9.7371052174        2.4835586414       -8.8628387351
 C       -10.6356782025        1.3146044834       -9.4689775703
 O       -11.4584207451        0.8704516171       -8.6933761922
 C       -10.4901624466        0.7148607074      -10.8734094727
 C       -10.5877244681        3.7273033962       -8.7121025793
 C        -8.5305259107        2.7541868340       -9.8904234923
 C       -12.0866105099       -0.7129981233       -3.4192484560
 C       -10.9407320662        1.5109727494       -2.9949581984
 C        -7.6158156726       -1.6350090011        3.0163094675
 C        -5.8117164607        0.2172105537        2.8146008456
 C        -3.6599389032       -4.8215708762       -1.6615763704
 C        -4.3430865916       -3.7065078757       -4.0283244735
 C       -10.0499710783       -8.7879223188       -0.6360674344
 C        -9.5521501942      -10.4164543755       -2.4772396891
 C       -11.9074595065       -3.6391047040       -5.8395969179
 C       -11.5275662817       -5.9176007005       -6.7861877234
 C        -5.4699031632       -0.9507900204       -6.6731779554
 C        -6.4889832478       -1.8166202660       -8.7892220701
 C        -0.4573038122       -4.6426259266      -10.9899092535
 C         1.1771878630       -2.9771640197       -9.9544458321
 C         2.7431051365        2.0723045783      -15.9919123215
 C         0.7219046819        0.7431095574      -16.7998592949
 C         4.5075955228       -2.3204972509      -21.4292286391
 C         6.2477217165       -3.1133059646      -19.6877294633
 C         8.5809784689        1.6870164195      -24.0018414594
 C         9.0879005245        3.5244226830      -22.2875371318
 C         1.1435856611        3.2346782239      -23.4351721395
 C         2.1905610791        5.0005927440      -24.8284389356
 H        -0.3317765391        6.3437722131      -22.0899221172
 H         0.3597435753        6.3233099369      -23.8162383269
 H         0.9548620653        7.4834551392      -22.6346536907
 H         4.6809096109        5.8178147941      -22.5065005966
 H         5.0576788088        4.9927423305      -24.0374176751
 H         5.8709452483        3.9621196701      -21.3924766944
 H         6.8583651638        4.9941642317      -22.4456194274
 H         9.6139180262        0.6307551741      -20.3042329621
 H         9.4572735880        0.1202203956      -21.9835624890
 H         8.1630544114       -0.8592908566      -19.3315397571
 H         8.7521282610       -1.7138499110      -20.7277799378
 H         6.1486363834       -1.0143087664      -17.6183169515
 H         4.7546651981       -2.0329668922      -17.7352723471
 H         4.5102114683        1.0301664047      -17.6795138027
 H         4.8090685895        0.1548068458      -16.2300136591
 H         0.6920129954       -1.5952287448      -14.7068258727
 H         0.1031173238       -0.1201919988      -14.1725911992
 H         0.7207421065       -0.4082014427      -11.9501350197
 H         2.1396015947       -1.3424159147      -12.4558175484
 H        -1.6993126304       -2.9890729264       -8.2902742300
 H        -2.1864652534       -4.0366308309       -9.5262218279
 H        -4.1761089034       -2.4219201154       -9.9745702703
 H        -3.1932958586       -1.2174354301       -9.0375596167
 H        -6.3475150014       -5.2561994391       -7.3136391263
 H        -7.6198171208       -4.4936791138       -8.1767222184
 H        -8.0191872942       -4.8550336852       -5.1143457284
 H        -8.4679481221       -6.2228522081       -6.3386499905
 H       -12.0234286826       -7.1067636780       -4.6255691834
 H       -12.8209565369       -5.8759226985       -3.4930403069
 H       -12.0845905552       -7.9617297451       -2.4760104491
 H       -11.1860718478       -6.5024656832       -1.7814434619
 H        -7.7678179920       -6.6556482341       -0.5338810583
 H        -8.2665843851       -6.2946651684       -2.1496471411
 H        -5.4581278344       -7.1855587679       -2.3133457341
 H        -5.5439912684       -6.1784744484       -0.9305128506
 H        -3.4755677716       -1.6083465107       -1.3533258097
 H        -3.8676594284       -2.7569860683       -0.1835148425
 H        -5.4843912494       -0.3606404549       -0.6090914843
 H        -4.2699784511       -0.4776149321        0.7048872474
 H        -9.8996537111       -0.3505612525        1.4104106712
 H        -9.0561624266       -1.5443590107        0.6054728625
 H        -9.0422366154        0.9408001517       -1.0129634963
 H       -10.6893782200        0.7490768062       -0.4898426625
 H        -8.2623000888        0.1156329583       -5.7499913422
 H        -8.4892435264        1.3495110659       -4.5348966440
 H       -10.3102511150        2.4949267684       -5.7973025243
 H       -10.8012616545        1.0667254331       -6.4640918387
 H        -9.6936185343       -0.0332388108      -10.7630689623
 H       -10.1821548365        1.4946127319      -11.6761772802
 H       -11.4279880511        0.2360444626      -11.0195592024
 H        -9.9133612084        4.5742548385       -8.6436140583
 H       -11.2010250575        3.8196444280       -7.8718425669
 H       -11.2758770473        3.9999645998       -9.5644071190
 H        -8.1744400024        1.6876857543      -10.0956839156
 H        -7.6195945664        3.2018375823       -9.4986036727
 H        -8.7827636704        3.2072948397      -10.8300443461
 H       -12.4779567276       -0.4033933369       -4.4109418790
 H       -12.7788116490       -0.6105230713       -2.5892030072
 H       -12.0272058350       -1.8212490297       -3.4343667292
 H       -11.0145849419        1.9188345552       -3.9355946779
 H       -10.1200763851        2.0166570561       -2.5635840898
 H       -11.7348292879        1.7156572661       -2.2703375871
 H        -8.1619847884       -0.9600862439        3.7032982245
 H        -6.9740832223       -2.2597071397        3.6108882403
 H        -8.3547906266       -2.2745557722        2.4405174456
 H        -4.9092940371       -0.3259364852        3.1355897801
 H        -6.2638299168        0.7885537755        3.6810625025
 H        -5.3976814957        0.9431985309        2.1122000948
 H        -3.3805417644       -5.7442550260       -2.1609980457
 H        -3.9367925081       -5.0273855284       -0.6109255467
 H        -2.6630367738       -4.2532665193       -1.5728860964
 H        -3.9739877734       -4.5643914658       -4.6376406185
 H        -3.5245506517       -3.0108722365       -4.0810657461
 H        -5.2245775004       -3.3191802218       -4.5766916121
 H       -10.5706080103       -7.8729479440       -0.3404321910
 H        -9.2058632991       -8.8283799743        0.0472180234
 H       -10.6976269915       -9.5780030518       -0.5443356752
 H        -9.4527429242      -10.4071127276       -3.5460772206
 H       -10.5747022847      -10.6701673435       -2.2731230555
 H        -8.8507005918      -11.0345822619       -1.9199092307
 H       -11.9585268965       -3.4036596959       -6.9059886901
 H       -11.4277298671       -2.8546197762       -5.3103925435
 H       -12.9103276828       -3.9463567259       -5.5134437183
 H       -12.3549302518       -6.4967987596       -6.4881144173
 H       -10.7490633144       -6.7295287283       -6.9223314630
 H       -11.5894072256       -5.3400880615       -7.6951941674
 H        -6.3754313640       -0.3730171595       -6.6814555427
 H        -4.6783199388       -0.3659955339       -7.0795076658
 H        -5.2084539067       -1.1874876736       -5.6089313332
 H        -6.7850738215       -2.6793544666       -9.4082914504
 H        -6.0657314067       -1.0847886229       -9.4226123589
 H        -7.3709583270       -1.2642466437       -8.4884493419
 H        -0.3487740463       -5.1757120473      -10.0286901080
 H         0.3117578560       -5.0861813560      -11.7039905539
 H        -1.4274372750       -4.6766124536      -11.3073590421
 H         1.4965402214       -1.9070869627       -9.7579180012
 H         2.0244994418       -3.6102260570      -10.5034597147
 H         0.9262227527       -3.4513332551       -9.0092733479
 H         3.7334408071        2.1259027206      -15.4690853195
 H         2.0692942153        2.7014924273      -15.4928709902
 H         2.7672287914        2.4550364732      -17.0219221345
 H         0.5210693911       -0.2721680176      -17.0992684036
 H         0.7290586385        1.3157862187      -17.7317324322
 H        -0.1103646546        1.1466819256      -16.2150581202
 H         4.9753787846       -2.8754339458      -22.2763109662
 H         3.8935561535       -1.5258789715      -21.7857864596
 H         3.9364503687       -3.1579907686      -20.8795648821
 H         6.7648091845       -3.6613507696      -20.5032659375
 H         5.6614452453       -3.8394016012      -19.0375179111
 H         7.0292038371       -2.7339350765      -19.0281289427
 H         7.9964138150        0.8453730131      -24.3695830026
 H         9.5237332007        1.2054595889      -23.6146603813
 H         8.6100283965        2.4877904676      -24.7890031326
 H         9.2966822439        4.1744620943      -23.1687602333
 H        10.1115828115        3.2030359032      -21.9621375749
 H         8.7092121224        4.2244733152      -21.4700694268
 H         0.1662052881        3.6823692154      -23.7218281650
 H         1.1032741131        2.9049585730      -22.3711288623
 H         1.4440573280        2.3673524537      -24.0635455927
 H         1.1552870875        5.1632808188      -25.2361892478
 H         2.7185201856        4.3548252070      -25.4531716445
 H         2.8360577577        5.9179204497      -24.8824312972
 Na       -8.3488704562       -2.9260730521       -3.4531295147
 Na        4.8848704093        1.1242763500      -22.0052541249
