232

 C         0.5204700763        6.4613953073      -22.7581400360
 C         1.7458582531        5.6450581177      -22.4480387534
 O         2.2696634507        5.7681010022      -21.3900570910
 C         2.2220931968        4.4822190241      -23.4069872817
 C         3.6083192798        3.9213172540      -22.9589446620
 O         3.6162055661        2.9158848870      -22.2533381091
 C         4.8037120178        4.7908481511      -23.1285081624
 C         6.0557920125        4.2323777905      -22.3394538726
 C         6.6531446963        3.0975686376      -23.0881629121
 O         5.9790766476        2.5958308355      -24.0201140947
 C         8.0184091654        2.3307590345      -22.7897156448
 C         7.9176689586        1.4339811967      -21.5036396169
 O         7.0454815647        1.7633962035      -20.7281870363
 C         8.9290816114        0.4051175417      -21.0679889776
 C         8.1611999644       -0.8804107896      -20.5176496496
 C         6.8162638053       -1.0424491118      -21.2073956310
 O         6.5954475710       -0.6379940567      -22.3663777426
 C         5.7176938258       -1.8431473617      -20.4737318211
 C         5.0701557435       -0.7969296939      -19.4857482719
 O         4.7217799693        0.3004706532      -19.8820236420
 C         5.0877955720       -1.1042854120      -17.8886458421
 C         4.4910037040        0.0774793930      -17.1433040287
 C         2.9479761598       -0.2162500683      -16.9700755452
 O         2.4677221636       -1.2730051405      -17.3140287739
 C         2.0009230082        0.7666348154      -16.2350749234
 C         2.0645276605        0.0532437428      -14.7486606559
 O         3.1577854286        0.1615261359      -14.2068528224
 C         0.8484778553       -0.7637154348      -14.1006195237
 C         1.1383144314       -1.2865986142      -12.6545755131
 C         0.1828308467       -2.4763308307      -12.4141811766
 O        -0.4009471475       -2.9893970587      -13.3783567796
 C        -0.0169417853       -3.1593736681      -10.9213795472
 C        -1.2154488442       -2.3105087407      -10.2194819784
 O        -1.3329071462       -1.0895641015      -10.3125337511
 C        -2.2977309543       -3.0650249316       -9.3390521247
 C        -3.5497723420       -2.1797364412       -9.0668473481
 C        -4.3444734577       -2.8471058773       -7.9463662776
 O        -3.8189472577       -3.6860154453       -7.2475041390
 C        -5.8718170715       -2.3095108788       -7.4542907230
 C        -6.7187736885       -3.2591138766       -6.5212287576
 O        -7.0472733776       -2.8055326461       -5.4530543444
 C        -7.3216987406       -4.6051701985       -7.0304381236
 C        -8.3597776756       -5.2453550373       -6.2269793798
 C        -9.6626250394       -4.3365803449       -6.3606235855
 O        -9.7174018729       -3.5051124871       -7.2505834743
 C       -10.9867992844       -4.7741845367       -5.8332542477
 C       -10.8978208943       -5.1841593291       -4.3006911010
 O       -10.1192445747       -4.6309350348       -3.5356411789
 C       -11.8380374425       -6.3758714135       -3.8858752608
 C       -11.4016358360       -7.2746928186       -2.6810714355
 C       -10.0759949653       -8.0182046497       -3.0618269513
 O        -9.7322126853       -8.0693167708       -4.1874409645
 C        -9.4002246132       -8.8493864700       -1.9390679248
 C        -7.6882003943       -8.3789444156       -1.9809998869
 O        -6.8932465540       -9.1905505427       -2.3239157721
 C        -7.3818029603       -6.9077051483       -1.7361891210
 C        -5.9844276683       -6.5592441129       -1.9929075168
 C        -5.8768448526       -5.1170423052       -2.5691788137
 O        -6.7804988744       -4.7486273859       -3.3781464582
 C        -4.7118562868       -4.1797546217       -2.3957154811
 C        -5.3309873901       -2.7584678630       -1.7468347720
 O        -6.3271612410       -2.2688144264       -2.1403739675
 C        -4.3091323740       -2.0340188512       -0.8352911177
 C        -4.9327191044       -1.0601291156        0.1920644385
 C        -6.0922953714       -1.6603265704        1.0352113403
 O        -6.4497225687       -2.7986839587        0.7844772051
 C        -6.8431260779       -0.7532401508        2.0037004394
 C        -7.8091960418        0.2038914680        1.1324957447
 O        -7.4266850027        1.3406230446        0.8954211954
 C        -9.1188530714       -0.4784155054        0.6167067102
 C        -9.7368466594        0.1874492707       -0.6026399498
 C        -9.9940525016       -0.7299355045       -1.9111881927
 O        -9.7576103283       -1.9275199573       -1.9588500160
 C       -10.6283844035       -0.0463005968       -3.2175490881
 C        -9.8020463281       -0.3491332700       -4.4629325050
 O        -9.7261726301       -1.5176848659       -4.7904046588
 C        -9.1076667725        0.8211887112       -5.3041599301
 C        -9.9303011526        1.4754737142       -6.3767339088
 C        -9.0394687309        1.8665000832       -7.6281314322
 O        -7.7983072523        1.7626604047       -7.5342257170
 C        -9.7315273267        2.3564738618       -8.9140311780
 C       -10.7368670082        1.2814530189       -9.3655691316
 O       -11.6416822933        0.8927075905       -8.6087645305
 C       -10.3883204154        0.5134103711      -10.6979422181
 C       -10.3691023259        3.7860177302       -8.4949408528
 C        -8.6155633906        2.6955777538      -10.0655304209
 C       -12.0252789098       -0.7769906052       -3.3424902796
 C       -10.8479252012        1.4710811090       -2.9394249559
 C        -7.6134042796       -1.6120759439        3.0279902461
 C        -5.9203592969        0.1212544267        2.7904368481
 C        -3.6224158990       -4.8726248688       -1.6318818857
 C        -4.2244028074       -3.8161867196       -3.8124599163
 C        -9.9424113994       -8.7122349404       -0.5180685679
 C        -9.6082680966      -10.2944052385       -2.4819898270
 C       -11.9814562835       -3.5886097544       -5.8627738957
 C       -11.4495704456       -5.9718555180       -6.7896196327
 C        -5.6228116334       -0.9003800999       -6.7594581418
 C        -6.7795879664       -2.0185448383       -8.6472509198
 C        -0.4154384687       -4.6320515795      -11.0241926840
 C         1.1516614524       -3.0352281149       -9.9928571348
 C         2.6769061810        2.1832944308      -16.0063892877
 C         0.6356534881        0.9625531530      -16.9762207042
 C         4.5283977323       -2.3425555700      -21.4011411139
 C         6.1966231327       -3.1548496738      -19.8645931357
 C         8.6087262921        1.6251270030      -24.0703174913
 C         8.9203326475        3.4645490498      -22.1212190860
 C         1.2462067690        3.1783946233      -23.4573440259
 C         2.3564627418        4.9460523139      -24.9027122818
 H        -0.1007568855        6.3551611933      -21.8831330440
 H         0.0493772368        6.1486502829      -23.6593867554
 H         0.8793878166        7.5193469930      -22.8208292369
 H         4.5873684967        5.7928964321      -22.7397077391
 H         5.2057721531        4.9006787146      -24.1373732779
 H         5.7809024754        4.1428070268      -21.2399641098
 H         6.8012267887        4.9625185948      -22.4200698316
 H         9.5083739019        0.6858210795      -20.0907832659
 H         9.6356594060        0.1548747397      -21.8015419614
 H         7.9301673592       -0.7029083819      -19.5353368195
 H         8.7363968289       -1.8548645536      -20.4537218712
 H         6.1079381272       -1.3683163096      -17.5592814818
 H         4.4328239658       -1.9412134470      -17.7439633235
 H         4.5726033221        0.9618576546      -17.8071024354
 H         4.9777206752        0.2651090610      -16.1811187660
 H         0.6927688265       -1.6672118180      -14.7560497311
 H        -0.1033268555       -0.2728110814      -14.1478544128
 H         1.1043509484       -0.4698227935      -11.9475512100
 H         2.1560695531       -1.6097136067      -12.7247793998
 H        -1.8573701426       -3.5280987273       -8.4474687675
 H        -2.5862096539       -3.9978875133       -9.9564345753
 H        -4.1979774323       -2.1460022806       -9.9789683839
 H        -3.2316692740       -1.1662487651       -8.7352759836
 H        -6.4553253171       -5.1889680042       -7.2599416137
 H        -7.7829935773       -4.5130372322       -8.0170894317
 H        -8.1598290375       -5.3143043095       -5.0786700112
 H        -8.5447999228       -6.2900953384       -6.7326222895
 H       -12.0636762899       -7.0001224879       -4.7322176555
 H       -12.7074771992       -5.8638603209       -3.5098537625
 H       -12.2211107803       -7.9651739291       -2.3894228390
 H       -11.1040270214       -6.5370042416       -1.8802841647
 H        -7.5245134640       -6.7327969902       -0.6759237892
 H        -8.1686306020       -6.3202261103       -2.1666610108
 H        -5.4885321799       -7.2050260761       -2.7522120387
 H        -5.3717564684       -6.7224586104       -1.1181267356
 H        -3.5636299958       -1.6474098447       -1.4623686538
 H        -3.7739492230       -2.7433898656       -0.2222528502
 H        -5.2660402920       -0.1757690642       -0.3960483093
 H        -4.1613250243       -0.7352078517        0.8173222373
 H        -9.8468562533       -0.5105808456        1.4377756609
 H        -8.8336699269       -1.4933196377        0.5390657362
 H        -9.1106723141        0.9918326933       -0.9232595117
 H       -10.7420611097        0.5557305850       -0.4696451340
 H        -8.1174394141        0.3542803709       -5.5698211236
 H        -8.8107005127        1.6571105126       -4.6033974906
 H       -10.4687936321        2.3641133091       -6.0138147378
 H       -10.7860142651        0.8967290716       -6.7960460074
 H        -9.5943821238       -0.2784062504      -10.6358517893
 H       -10.1269521268        1.2043188989      -11.4488530126
 H       -11.4057581855        0.0864583447      -10.7881856742
 H        -9.6772019860        4.5942633003       -8.4060433860
 H       -10.9731101712        3.8222521433       -7.6400806017
 H       -11.1015465511        4.0936175319       -9.2476454980
 H        -8.1863997658        1.7931098739      -10.4139874182
 H        -7.7654476851        3.2326359425       -9.6671933417
 H        -9.0424598290        3.1219840176      -10.9307130129
 H       -12.6368865336       -0.3295095719       -4.1304920267
 H       -12.5882818184       -0.9110724276       -2.3592586096
 H       -11.9162172509       -1.8617906576       -3.6287663616
 H       -11.3479409802        1.8552429390       -3.8628259509
 H        -9.9595488091        2.0687830846       -2.9258675745
 H       -11.3319112172        1.6530622273       -2.0062853629
 H        -7.7787616090       -0.9567832788        3.9020105735
 H        -7.0105287888       -2.4620741013        3.3850422139
 H        -8.5965247679       -2.0201818467        2.6382419341
 H        -5.0261829205       -0.4688723440        2.9671952982
 H        -6.3855367535        0.4379205825        3.7759712060
 H        -5.4874374619        1.0632015105        2.2691392425
 H        -3.3676653638       -5.9002453702       -1.9759295725
 H        -3.9045595653       -4.8906920009       -0.5989998781
 H        -2.6703697200       -4.2905076240       -1.5565107252
 H        -3.7489165373       -4.6524618500       -4.2715466412
 H        -3.4788541376       -3.0327743519       -3.8670510264
 H        -5.1122556080       -3.6043328069       -4.5103836326
 H       -10.2316844800       -7.6976312848       -0.2048852788
 H        -9.1235632865       -8.9647914397        0.1904016510
 H       -10.8221789167       -9.3246457305       -0.4621257279
 H        -9.3860393450      -10.2647504044       -3.5614252672
 H       -10.6508682171      -10.5676034054       -2.3965189867
 H        -8.9662312938      -10.8782260804       -1.8579837503
 H       -12.1729241694       -3.1518291860       -6.7984783572
 H       -11.4923033130       -2.8994598960       -5.2029392878
 H       -12.8592383858       -4.0206448646       -5.3865017527
 H       -12.4216482323       -6.2837092294       -6.4605652635
 H       -10.8982063462       -6.9016796793       -6.6668422729
 H       -11.3795098068       -5.5998533144       -7.7816462744
 H        -6.5042730589       -0.2427241812       -6.9201515872
 H        -4.6959612031       -0.4023904168       -7.0951885729
 H        -5.5895482301       -1.0137275072       -5.6972332274
 H        -7.0065893765       -2.8549683115       -9.2646361083
 H        -6.5211106457       -1.1467551444       -9.2986029057
 H        -7.7439224045       -1.6156078485       -8.2147337892
 H        -0.3473739430       -5.1963342786      -10.0384647532
 H         0.3503268618       -5.0748974263      -11.6587153278
 H        -1.4554435087       -4.6134137405      -11.4862373484
 H         1.3123333239       -1.9797691248       -9.6197672960
 H         2.0738825318       -3.4716309143      -10.4516661133
 H         0.8376702210       -3.6388207935       -9.1276224123
 H         3.4984413479        2.1184551251      -15.4269107992
 H         1.8960247670        2.8126980944      -15.5819274874
 H         2.9418127830        2.6107759389      -16.9891911887
 H         0.1611018139       -0.0028169529      -17.2376326787
 H         0.7488728340        1.5346060112      -17.9245160015
 H        -0.0682270589        1.5642170047      -16.3998201646
 H         4.8594153728       -3.0445910176      -22.1592980343
 H         4.0182692134       -1.4845479513      -21.8346360457
 H         3.8597159480       -2.9498347013      -20.7571708249
 H         6.4671548871       -3.7947850639      -20.7582616113
 H         5.4236486563       -3.6971910970      -19.3496743780
 H         7.0689798493       -3.0777529560      -19.1246746592
 H         7.9632698740        0.9122110288      -24.5099153427
 H         9.4659654170        0.9624230358      -23.7341241355
 H         8.7240031155        2.5374836753      -24.7629236147
 H         9.2341426580        4.2911419413      -22.8715450669
 H         9.9353170270        2.9933928979      -21.8667685026
 H         8.5750348176        3.9595156026      -21.2482839047
 H         0.3639557674        3.3057019675      -24.1000970641
 H         0.9331668117        2.9967335175      -22.4255532117
 H         1.9490285114        2.3163364347      -23.7484288631
 H         1.4105430454        5.1785693847      -25.2863305388
 H         2.8962325992        4.1815730527      -25.4869662411
 H         3.0330223120        5.8380824194      -25.0120017993
 Na       -8.2468555334       -2.8349964519       -3.5730185603
 Na        4.9009522302        1.1744417151      -21.9794069075
