232

 C         0.4312483379        6.4335014329      -22.9303712693
 C         1.6093823664        5.4863248239      -22.4636155901
 O         2.2408324313        5.5992323550      -21.4306777397
 C         2.2936545913        4.4342453431      -23.4707413077
 C         3.6392300687        4.0493300708      -22.8760641679
 O         3.6522622135        2.9657934419      -22.2917292169
 C         4.8640754462        4.8703886330      -23.1758339815
 C         6.1784270831        4.3178108046      -22.3736037473
 C         6.6840777263        3.0560066581      -23.1116269006
 O         6.0439881304        2.5584185131      -23.9875417130
 C         8.1128090236        2.4181533731      -22.6964769305
 C         7.8321189651        1.4680062140      -21.4796618820
 O         6.9682044864        1.7159259604      -20.6212640837
 C         8.8152803949        0.3522999328      -21.1837580706
 C         8.1523235540       -0.8835212097      -20.5815701661
 C         6.7420729088       -1.1344745977      -21.3005332460
 O         6.4669346054       -0.5581906864      -22.3783933673
 C         5.6681221231       -1.9168528560      -20.5137053322
 C         5.1264427422       -0.7648452629      -19.4749335478
 O         4.6368791291        0.2316192742      -19.8977053407
 C         5.0400389113       -1.0757540834      -17.9910295359
 C         4.4045000203       -0.0021060046      -17.1266885881
 C         2.9241067351       -0.1773877798      -16.9291186770
 O         2.4661611738       -1.2586685759      -17.3106360820
 C         1.9004840820        0.8672658516      -16.1508549037
 C         1.9840691836        0.2357660308      -14.7510332324
 O         3.0785503201        0.2820934250      -14.1969409053
 C         0.8949375294       -0.6604716805      -14.2194672659
 C         1.1676047857       -1.3959647556      -12.7843399159
 C         0.1242660987       -2.4640993164      -12.4862331861
 O        -0.5261139498       -3.0100894966      -13.3262791167
 C        -0.0796532606       -3.0631970076      -10.9675680382
 C        -1.3038161380       -2.3078987393      -10.2161648228
 O        -1.1474502800       -1.1095397059      -10.1164286424
 C        -2.4922163163       -3.1116192516       -9.5338046147
 C        -3.6389172003       -2.1876936519       -8.9569268078
 C        -4.4770602760       -2.9170717294       -7.8578546426
 O        -4.0097354125       -3.7481541851       -7.1389274604
 C        -6.0387632322       -2.2885809972       -7.5196869281
 C        -6.6900596088       -3.2489704554       -6.4492757307
 O        -6.9130218304       -2.8048749909       -5.3889143801
 C        -7.1721103023       -4.6160234315       -6.9999496488
 C        -8.4290363895       -5.2029540058       -6.3275150740
 C        -9.6899250282       -4.3436037917       -6.5795898778
 O        -9.5469760909       -3.3748745462       -7.3680275396
 C       -11.0524620791       -4.8017843645       -5.8195325461
 C       -10.8632335994       -5.2296757414       -4.3764885045
 O       -10.1934715534       -4.6262272955       -3.5542328441
 C       -11.8733800477       -6.2597703342       -3.8591294185
 C       -11.3697671326       -7.1048487407       -2.6418693961
 C       -10.1105246538       -7.8839403886       -2.9847566756
 O        -9.7777065824       -8.1121226956       -4.1644426455
 C        -9.2657080585       -8.8331557594       -1.8954727985
 C        -7.7531508790       -8.4378394622       -1.9848687147
 O        -6.8953753815       -9.2502805797       -2.1619820032
 C        -7.4425876639       -7.0129697645       -1.7570160603
 C        -5.9501283396       -6.7093420530       -2.1296001894
 C        -5.8379106189       -5.2253182576       -2.5838504224
 O        -6.7719026861       -4.8033092662       -3.3005858730
 C        -4.6548319432       -4.2012893043       -2.2242708655
 C        -5.2444692195       -2.8336669635       -1.7795901745
 O        -6.3266402024       -2.4134230726       -2.1261534005
 C        -4.2882978862       -2.0333768817       -0.8106958355
 C        -4.9097632063       -1.0444486822        0.1921857771
 C        -6.1302799801       -1.6369928558        0.9267796955
 O        -6.5408647026       -2.7694724831        0.7146138760
 C        -6.8312628153       -0.7240838570        2.0804185487
 C        -7.6734424828        0.1494309022        1.1470827588
 O        -7.4835597155        1.2849696425        0.8150717289
 C        -9.0300965348       -0.5762871285        0.5003023676
 C        -9.6971674863        0.1597071506       -0.6745205249
 C        -9.9231346611       -0.7373156970       -1.8728039278
 O        -9.7427319878       -1.9183296127       -1.9168062531
 C       -10.6396647096        0.0229836996       -3.1003344578
 C        -9.8111266566       -0.2722830748       -4.4310977265
 O        -9.7282393697       -1.3945760503       -4.9186418477
 C        -9.1364246493        0.8199590659       -5.2500008079
 C        -9.8565137345        1.2658253961       -6.5206333752
 C        -8.9143507739        1.7790963280       -7.6301954589
 O        -7.7236516298        1.8658633828       -7.5291980495
 C        -9.6707421168        2.2783148910       -8.9224610683
 C       -10.8275759969        1.2363123791       -9.3029686004
 O       -11.7877288373        1.0295937597       -8.6163919980
 C       -10.4395671982        0.3276664006      -10.4611866753
 C       -10.1941958795        3.6866818984       -8.4204115839
 C        -8.7695983091        2.6321608367      -10.0281342029
 C       -11.9191342942       -0.7129185520       -3.1909513666
 C       -10.8788841384        1.5171741156       -2.9186037253
 C        -7.7199131920       -1.6729367839        3.0055756425
 C        -5.8276461384        0.1450156123        2.8143961064
 C        -3.4632782628       -4.7838976551       -1.4805662578
 C        -4.0439434476       -3.8469442649       -3.5801074586
 C        -9.7069552186       -8.5998373067       -0.4223974878
 C        -9.4141080054      -10.2535149285       -2.3938991073
 C       -12.1479193241       -3.6277665284       -5.8638021594
 C       -11.4813064672       -5.9445831535       -6.6930495326
 C        -5.6957987801       -0.9611016195       -6.8281634563
 C        -6.9907789033       -2.2189418300       -8.7372729382
 C        -0.4186470928       -4.5925672222      -11.2482114712
 C         1.2319398416       -2.9333481998      -10.0578792347
 C         2.5770336757        2.3374068057      -16.0708118704
 C         0.6683953383        1.0443263698      -16.9363648029
 C         4.4708563689       -2.1767971299      -21.4561186104
 C         6.2621543645       -3.1994620742      -19.8823339158
 C         8.6450853292        1.7126047896      -23.9201470065
 C         8.9991729649        3.4617176430      -22.1496201647
 C         1.2843490679        3.2806496429      -23.4398152867
 C         2.5214085363        4.9495684675      -25.0158862126
 H        -0.1569723665        6.4829972920      -21.9761288440
 H        -0.1785008857        5.9215150619      -23.6671660323
 H         0.8080154979        7.3796922845      -23.2448034296
 H         4.7323479421        5.9171119949      -23.0200663756
 H         5.0796108300        4.6627272520      -24.2131394079
 H         5.6313381691        4.0068612650      -21.4381851770
 H         6.9265717013        5.0265675109      -22.0233704455
 H         9.5618197307        0.7879335861      -20.4349121348
 H         9.4497288992       -0.0984603610      -22.0113964217
 H         7.8405490847       -0.6754368773      -19.5570486700
 H         8.7882437995       -1.7416123896      -20.4741768226
 H         6.0843385383       -1.3414584483      -17.5974389584
 H         4.4226041815       -2.0057093824      -17.9961618607
 H         4.6771469709        1.0398448933      -17.4456672989
 H         4.7754391322       -0.2327828950      -16.0623516828
 H         0.5907648978       -1.3538035289      -15.0806300140
 H        -0.0704287760       -0.1126524597      -14.0259985583
 H         1.0610832642       -0.5766952235      -12.1228629620
 H         2.2084481151       -1.7273261944      -12.7355882791
 H        -1.9375916355       -3.6469656436       -8.7411357154
 H        -2.8638636496       -3.9232675265      -10.1769025076
 H        -4.2712445301       -1.7875143695       -9.7848902904
 H        -3.1677694497       -1.3536748493       -8.3820869621
 H        -6.2623602076       -5.2239568386       -6.8132590078
 H        -7.2774232248       -4.6958714110       -8.0588002000
 H        -8.3798170180       -5.1404056012       -5.2479749908
 H        -8.5473018455       -6.2034260201       -6.7050651192
 H       -12.0175086131       -7.0246003773       -4.6283033997
 H       -12.7562479049       -5.7459383360       -3.6068352718
 H       -12.1682654527       -7.8928510416       -2.4882672805
 H       -11.1180053522       -6.5683367579       -1.7494019219
 H        -7.7538227946       -6.6884370414       -0.8195218798
 H        -8.1124569609       -6.4728874194       -2.4317222892
 H        -5.6612955933       -7.2258620445       -3.0270245552
 H        -5.1138644484       -6.9957093572       -1.4313823893
 H        -3.6510079255       -1.5904559417       -1.5183429049
 H        -3.5625197227       -2.6625751423       -0.1648082049
 H        -5.0616265971       -0.0996961471       -0.2659056012
 H        -4.1861204808       -0.8790520745        0.9835602065
 H        -9.7877781033       -0.7218626592        1.2581965026
 H        -8.7226238959       -1.5975559590        0.2147317373
 H        -9.1478534685        1.0540359795       -0.9368484935
 H       -10.7749745392        0.3918548817       -0.5408642296
 H        -8.1924588089        0.2986609700       -5.4326813980
 H        -8.8237538636        1.7178860288       -4.6905261145
 H       -10.6595195474        2.0490312435       -6.3652196279
 H       -10.5037342501        0.5218896555       -7.0964891551
 H        -9.4741330254       -0.1551421156      -10.2494554704
 H       -10.1653462898        0.9957615735      -11.2284035051
 H       -11.2794876538       -0.3746276340      -10.5933035426
 H        -9.5497649786        4.4195546219       -7.9866092608
 H       -11.0445139974        3.4485904511       -7.7123233646
 H       -10.7887666550        4.1495131909       -9.1065372173
 H        -8.2308299863        1.8552916587      -10.4300898890
 H        -8.0814745497        3.3594742063       -9.6749868843
 H        -9.4215805143        2.9147896649      -10.8751632003
 H       -12.6178987880       -0.2754590300       -3.9367219242
 H       -12.4608152896       -0.9154142639       -2.2408065096
 H       -11.7211471876       -1.7244769662       -3.5640788856
 H       -11.5564298126        1.8860126368       -3.7439815465
 H        -9.9482518553        2.1192797345       -3.1206683936
 H       -11.2160441716        1.7774409624       -1.9223767089
 H        -7.8946374819       -1.2177671951        3.9885754183
 H        -7.0671162981       -2.5796737507        3.1842231063
 H        -8.6006447809       -2.0231708667        2.5520728936
 H        -4.9159028364       -0.4644508521        3.1111077701
 H        -6.3291048689        0.5380330653        3.6816687922
 H        -5.3865213216        1.0018408014        2.2711191937
 H        -3.1852838826       -5.7663663517       -1.8911391166
 H        -3.5823711319       -4.8766127963       -0.3817154058
 H        -2.6314761180       -4.1495111693       -1.4414260719
 H        -3.5350534585       -4.7034482419       -4.0235568006
 H        -3.2695196164       -3.0472053395       -3.5044571728
 H        -4.7517110722       -3.6024026837       -4.3133700064
 H        -9.4628649142       -7.5926296178       -0.1226224603
 H        -9.2730582417       -9.2537191239        0.3324610737
 H       -10.8588439941       -8.5840788171       -0.5278749570
 H        -8.9817357166      -10.3741578123       -3.3804608589
 H       -10.4951799922      -10.4181135654       -2.5031064260
 H        -8.9968815895      -10.8081463358       -1.5698343745
 H       -12.1498757574       -3.3638773607       -6.9093105666
 H       -11.6885649327       -2.7778389621       -5.3413230468
 H       -13.0843190953       -3.9441284250       -5.4695713174
 H       -12.5780407811       -6.0717890048       -6.7313751762
 H       -11.1834174309       -6.8667147007       -6.3661591356
 H       -11.0473773978       -5.7044898079       -7.6481182698
 H        -6.5848193406       -0.2831796929       -6.8484800203
 H        -4.7697583980       -0.4392585932       -7.1793358534
 H        -5.6332004363       -1.1541505687       -5.7709307190
 H        -6.9245131233       -3.0676562361       -9.4379286389
 H        -6.9365860107       -1.2571084999       -9.3333000136
 H        -8.0455331981       -2.1689816379       -8.3816520172
 H        -0.5848995697       -5.0524632151      -10.2505202803
 H         0.5269913671       -5.0199596304      -11.4994317342
 H        -1.2934270747       -4.7852636058      -12.0126773872
 H         1.4222342801       -1.9205332126       -9.8197837568
 H         1.9872148455       -3.3380915793      -10.5794966815
 H         1.0828609863       -3.4983401116       -9.1044102266
 H         3.4332760751        2.1568053267      -15.3857736853
 H         1.7806864812        2.9961650325      -15.6510384721
 H         2.9817154334        2.7107685868      -16.9815337683
 H         0.0613061155        0.1236281348      -17.0888384796
 H         0.8755271155        1.5065231062      -17.9082114114
 H         0.0238478356        1.8035588716      -16.4483671735
 H         4.7794942057       -2.9216332806      -22.1531634745
 H         4.4057483215       -1.1892997908      -21.9712223032
 H         3.6048795642       -2.5094088438      -21.0444150765
 H         6.4651258320       -3.9920197013      -20.6073589646
 H         5.4682402591       -3.6361384609      -19.2796815834
 H         7.1113963288       -2.9722055892      -19.1691834700
 H         7.7228033117        1.1202281131      -24.2225673885
 H         9.3423539544        0.9249386928      -23.7894441882
 H         8.7848558949        2.4920777232      -24.6038563320
 H         9.1817088965        4.3689042829      -22.7165171477
 H         9.9401937200        2.9427480223      -22.0437939774
 H         8.7638516167        3.8567638722      -21.1431426774
 H         0.4577959188        3.4615247938      -24.1247338775
 H         0.8421285018        3.2680860483      -22.4159815543
 H         1.8668855920        2.3849247423      -23.6218574560
 H         1.6037612959        5.3947193241      -25.3265466999
 H         3.0197185230        4.2503331397      -25.7628231020
 H         3.1589935519        5.7738382949      -24.9868926168
 Na       -8.2183497623       -2.8862668508       -3.6291463735
 Na        4.9927582936        1.1930151707      -21.9541071332
