232

 C         0.4454064234        6.0669728001      -23.5713155266
 C         1.6929621335        5.5056831051      -22.8495988083
 O         1.9567579363        5.5062718149      -21.6776387378
 C         2.5650470296        4.5387578889      -23.8265030640
 C         3.8040920328        4.1029271267      -23.0281916268
 O         3.6661040434        3.1751619320      -22.2136448196
 C         5.0908035388        4.9412729077      -23.2575319652
 C         6.2550819924        4.3039664670      -22.4178759202
 C         6.9469759114        3.0703014044      -23.0223719578
 O         6.2384240420        2.2417416949      -23.7324670353
 C         8.3833459384        2.7025027032      -22.5665814626
 C         7.9481631690        1.6126574721      -21.4968850211
 O         7.2035378187        1.8825140713      -20.5750390917
 C         8.4985772989        0.2323216561      -21.7861266983
 C         7.8722725391       -0.8529408392      -20.7331424539
 C         6.4403504955       -1.0420636219      -21.3073332379
 O         6.1599321517       -0.5272438071      -22.3727942937
 C         5.3681553585       -1.8940856851      -20.5323907191
 C         4.7171956884       -0.8259913576      -19.3884599825
 O         4.2000022595        0.2192815647      -19.7439067257
 C         4.6751855127       -1.2859357932      -17.8947907272
 C         4.0817140011       -0.0790748198      -17.0436742999
 C         2.4786534888       -0.1017950658      -16.9510510899
 O         1.8612791518       -1.0267130653      -17.4248811303
 C         1.7449208807        1.0393946178      -16.0144366597
 C         1.5517452982        0.2940531517      -14.6964489368
 O         2.2671833261        0.6068526101      -13.7467889777
 C         0.5088263855       -0.7287226210      -14.3698898109
 C         0.5254580271       -0.9724684773      -12.8649543085
 C        -0.5366789406       -2.0382456800      -12.4284440880
 O        -1.6801409686       -2.1096672754      -12.8529798647
 C        -0.3403794295       -2.9044928597      -11.0753244007
 C        -1.3275218663       -2.1470412910      -10.1748692103
 O        -1.1298700474       -1.1003711974       -9.5955773863
 C        -2.7435615835       -2.7868157182      -10.1079410788
 C        -3.5801143351       -2.1705050741       -9.0406098285
 C        -4.5070327454       -3.1236713389       -8.3031943271
 O        -4.1963863537       -4.2363916278       -8.0031725901
 C        -6.0274658114       -2.4709314048       -8.1546001090
 C        -6.6861328269       -3.2713742223       -6.9594122617
 O        -7.1160945800       -2.6181252606       -6.0260819194
 C        -6.8833520306       -4.7843475665       -6.9329573621
 C        -8.2759601902       -5.1706925058       -6.1569423247
 C        -9.5179616522       -4.3356375498       -6.4733548487
 O        -9.5170100657       -3.3577274422       -7.2282997766
 C       -10.8361661365       -4.9254449806       -5.8521522608
 C       -10.6247974409       -5.1150573812       -4.2929909414
 O        -9.8419651207       -4.4181590112       -3.6622691508
 C       -11.5793220189       -6.1797241327       -3.7531623285
 C       -11.1409577784       -6.7746790126       -2.4542550118
 C        -9.9956966392       -7.8476186516       -2.7877789680
 O        -9.5872295712       -7.8789768859       -3.8851611273
 C        -9.3270792123       -8.7289429147       -1.6922144508
 C        -7.7756048247       -8.5101277762       -1.7914215526
 O        -6.9657236414       -9.3950698041       -1.6769627376
 C        -7.3718551475       -6.9643576926       -1.9578146398
 C        -5.8180657523       -6.8340114721       -1.9497101514
 C        -5.4998506516       -5.4401106819       -2.6218969716
 O        -6.0949321519       -5.0257432596       -3.5626820550
 C        -4.4186686480       -4.4599160317       -2.0511454951
 C        -5.0317237050       -3.0806307675       -1.6768627775
 O        -5.9434926443       -2.5145709786       -2.2154225657
 C        -4.1922644153       -2.1805672185       -0.7422678660
 C        -5.0476677421       -1.1215685611        0.0805222000
 C        -5.9072713594       -1.8291953859        1.0662298919
 O        -5.8758563400       -3.0131363602        1.3263356420
 C        -6.8534543855       -0.8541147361        2.0364029259
 C        -7.8595816545        0.0261900872        1.2139909120
 O        -7.4527596902        1.0936629781        0.7222285003
 C        -9.2615232760       -0.5438862421        0.9052720414
 C        -9.9568817900        0.2298786224       -0.3168941691
 C        -9.5729414509       -0.3992340843       -1.7092067518
 O        -8.8237263615       -1.3513562724       -1.7303012969
 C       -10.4338511989        0.0502741015       -2.9895859573
 C        -9.7058559015       -0.3196668481       -4.3130336729
 O        -9.5167594181       -1.4694946902       -4.5696697849
 C        -9.3657518611        0.8675199273       -5.3444828240
 C        -9.4886926795        0.2876110574       -6.8180817458
 C        -8.7863613402        1.4329242593       -7.7112872958
 O        -7.6292752380        1.8196814782       -7.5248256358
 C        -9.7062437449        1.9860873809       -8.8018166719
 C       -11.0345883193        1.1952321302       -9.0181764282
 O       -12.1131848338        1.7445640541       -9.0669850122
 C       -10.7716525804       -0.3307872854       -9.4290211135
 C       -10.0570785801        3.2912477859       -8.2186394504
 C        -9.0618474447        2.2505657078      -10.2699766132
 C       -11.7325761429       -0.7133590180       -2.8512804730
 C       -10.6827288627        1.5779907133       -2.8998459426
 C        -7.6508577550       -1.7547158045        3.0911544894
 C        -5.8512366262       -0.0289936489        2.8446753610
 C        -3.7154697921       -5.1588272391       -0.8973705184
 C        -3.5432870621       -4.1717745412       -3.3943508044
 C        -9.6780765514       -8.3885175903       -0.2302098325
 C        -9.6037685541      -10.2840583536       -1.8529079583
 C       -11.9429229779       -3.8137689257       -6.0451182513
 C       -11.1556975551       -6.1948184851       -6.7435566676
 C        -5.9690614357       -0.9508406214       -7.7943945634
 C        -6.6914131253       -2.6965081734       -9.6258454925
 C        -0.7708888865       -4.3576918243      -11.4976112271
 C         1.0732864476       -2.9990276234      -10.3762050095
 C         2.6388427107        2.3260663458      -15.8724298733
 C         0.4302248718        1.3105951869      -16.8652977315
 C         4.2532755481       -2.3063730226      -21.4785438915
 C         5.9981688324       -3.1381100678      -19.9363812104
 C         9.0575432527        2.2281860571      -23.8372359722
 C         9.1624699781        3.8207864786      -21.7758814583
 C         1.6086301849        3.3126868451      -24.1899739505
 C         2.9229430964        5.2555876573      -25.1053244089
 H         0.0919860190        6.8947465443      -22.9559429018
 H        -0.3014603468        5.2832953022      -23.5060501513
 H         0.7772275059        6.4810618303      -24.5775963595
 H         4.9467711246        6.0053594560      -22.9989496591
 H         5.5278891753        4.8764079190      -24.2440032706
 H         5.9185729290        4.1443407557      -21.3708452717
 H         7.0558285189        5.0389805075      -22.2509206933
 H         9.5382994683        0.1472387914      -21.5720923227
 H         8.4746353199       -0.0475916415      -22.7446813338
 H         7.8945849767       -0.2710661747      -19.8186741870
 H         8.4945008275       -1.8157703521      -20.4502941605
 H         5.6986884269       -1.5898749499      -17.5985913235
 H         3.9775411112       -2.1878642225      -18.0317791838
 H         4.3744496922        0.8714093085      -17.5637901223
 H         4.3902851209       -0.1940737866      -16.0085859503
 H         0.6726130951       -1.7336390703      -14.8114383059
 H        -0.4785603464       -0.5726854326      -14.8020137732
 H         0.4620349900       -0.0455621254      -12.2152492921
 H         1.5437324028       -1.3542046968      -12.6230826008
 H        -2.6059673849       -3.7695131595       -9.7606717318
 H        -3.2191078200       -2.6472460972      -11.0765587577
 H        -4.0914746936       -1.2749405266       -9.3668521046
 H        -2.9174433158       -1.7699366179       -8.2669553273
 H        -6.1154645341       -5.0757691445       -6.2221529355
 H        -6.6957563814       -5.3006879744       -7.8880403505
 H        -8.1664948149       -4.8239462944       -5.1624991435
 H        -8.5140721681       -6.1749500970       -6.3151650453
 H       -11.6440615031       -6.9797071034       -4.5022659220
 H       -12.6228996615       -5.7175954795       -3.7236441030
 H       -11.8818333303       -7.2071842805       -1.8506455740
 H       -10.7929115474       -5.8885700266       -1.9111083860
 H        -7.8375628172       -6.5145985410       -1.0521936231
 H        -7.8253356925       -6.5972643927       -2.8500013987
 H        -5.3616216502       -7.6154638025       -2.5787214590
 H        -5.4664202961       -6.9872043303       -0.9643294276
 H        -3.4389726091       -1.5720651528       -1.3240295366
 H        -3.6173384483       -2.7437137749        0.0179394766
 H        -5.5991307775       -0.3996245461       -0.6112493355
 H        -4.4028891410       -0.4005843058        0.5904857978
 H        -9.9308234770       -0.4981007812        1.8202465780
 H        -9.0721905615       -1.5653489591        0.5311941687
 H        -9.6346458590        1.3034404777       -0.4322713276
 H       -11.0460268503        0.1470732203       -0.2811219333
 H        -8.3452754467        1.2053497673       -5.2014769370
 H        -9.9741484995        1.7405047857       -5.2144562031
 H       -10.4753434520        0.0096935275       -7.1615887851
 H        -8.8490168950       -0.6000727053       -6.9385834162
 H        -9.7313105957       -0.4420061036       -9.1326296401
 H       -10.9480199632       -0.4896409276      -10.4414944565
 H       -11.4893638681       -0.9090782255       -8.8118487068
 H        -9.3212347873        4.0750292840       -8.4716002463
 H       -10.0112028327        3.2185326086       -7.1242044641
 H       -11.0693542662        3.7006504498       -8.4717480453
 H        -9.1446173957        1.3168327328      -10.8692844917
 H        -8.0001495372        2.6234636891      -10.1396715386
 H        -9.6557969048        3.0517956190      -10.7138886214
 H       -12.4935094754       -0.4064407741       -3.5149202162
 H       -12.2421515379       -0.6078434625       -1.8962343009
 H       -11.5656063267       -1.7333716041       -3.1829869057
 H       -11.3880020773        2.0003519383       -3.6547959409
 H        -9.6776699060        1.9895661732       -2.9652810625
 H       -11.2277691444        1.9952579654       -2.0567467567
 H        -8.6435248950       -1.4101405211        3.3267385025
 H        -7.1387970740       -1.8368890121        4.0122466783
 H        -7.7979506454       -2.7791222596        2.6752877759
 H        -5.0152667553       -0.5816322024        3.1107957162
 H        -6.3303248118        0.3280098156        3.7487276205
 H        -5.6309009035        0.8742423715        2.2442287223
 H        -3.5165199689       -6.2246519288       -1.0866535412
 H        -4.3174991911       -5.1642315558       -0.0306820650
 H        -2.6839022359       -4.8952125484       -0.5620034316
 H        -2.9850053725       -5.0296211532       -3.7084411993
 H        -2.8840597160       -3.3524206963       -3.2339525079
 H        -4.2154375447       -3.9030006113       -4.2798999626
 H       -10.0277881253       -7.3543019931       -0.0353931942
 H        -8.7600895367       -8.6510121077        0.3317064321
 H       -10.2478248810       -9.1784372701        0.1800231370
 H        -9.3108471635      -10.5029067805       -2.8995599129
 H       -10.6529641423      -10.4065345575       -1.6309463230
 H        -8.9180067813      -10.8062504642       -1.2003398426
 H       -11.8490562529       -3.4616102262       -7.0484803039
 H       -11.6741235517       -3.0363484754       -5.3451967400
 H       -12.9338142298       -4.1972378389       -5.7298995175
 H       -12.2065026657       -6.3113621370       -6.7366591972
 H       -10.5229873447       -7.0098088078       -6.4305369899
 H       -10.9893782037       -6.0869539548       -7.7762143209
 H        -6.9204506327       -0.7419237589       -7.2438249577
 H        -5.7695677923       -0.1940802537       -8.5856447181
 H        -5.2205015706       -0.8223855713       -6.9979700868
 H        -6.4765150540       -3.6856503249       -9.9807268189
 H        -6.2258719932       -2.0259546013      -10.3648787761
 H        -7.7981180811       -2.7952515425       -9.6069896897
 H        -0.5741311791       -4.9810899862      -10.6249395000
 H        -0.2169270246       -4.7020161082      -12.3089482682
 H        -1.7910011602       -4.4687252843      -11.9479517314
 H         1.6228172965       -2.1328827297      -10.1637929133
 H         1.5491253404       -3.6595296508      -10.9746680255
 H         0.9054914872       -3.5369823434       -9.4426398293
 H         3.5421270230        2.0726388304      -15.3667271772
 H         1.9992635978        3.0594457446      -15.2884120278
 H         2.8061440434        2.6232636604      -16.9810383717
 H        -0.1537285607        0.3779514161      -17.0225317956
 H         0.7825258301        1.5530088449      -17.8993112888
 H        -0.3239688923        2.0111112151      -16.5107161455
 H         4.6151078217       -2.9080900792      -22.2719664912
 H         3.7639070009       -1.4026191876      -21.8317588359
 H         3.4751280941       -2.7640350307      -20.8958539910
 H         6.3682026656       -3.7976374921      -20.7377931456
 H         5.3092747467       -3.6113542476      -19.2807683567
 H         6.9278579100       -2.7668628927      -19.5068447078
 H         8.3121715265        1.7993297223      -24.5063704091
 H         9.7928530666        1.4778379667      -23.6314516888
 H         9.6353900739        2.9832662157      -24.3564414927
 H         9.1189092648        4.8338929777      -22.2179943797
 H        10.2416119847        3.6089768474      -21.7304164441
 H         8.8854337950        4.0003718054      -20.8138999992
 H         0.9091201270        3.7831785114      -24.8553768383
 H         1.1275410681        2.9659651972      -23.3231702296
 H         2.1935213569        2.5955889231      -24.8166113250
 H         2.0086246247        5.4317521193      -25.6048062588
 H         3.4023914403        4.5726640712      -25.8075521161
 H         3.4660346472        6.2427616009      -24.9927451667
 Na       -7.6810081459       -2.7566692251       -3.7430776659
 Na        4.9953806886        1.3543311939      -21.7156124170
