232

 C         0.4118183610        6.0102338843      -23.5574388069
 C         1.6933490946        5.3880676275      -22.9409130116
 O         1.9699141214        5.5436997644      -21.7527912226
 C         2.5744795418        4.5687604146      -23.9427776830
 C         3.7917042795        4.1290804342      -23.0976778439
 O         3.6870630014        3.2247480849      -22.2794922505
 C         5.1000560856        4.8015605504      -23.3004669248
 C         6.2571549452        4.3485805708      -22.3233656293
 C         6.9237128083        3.1323778746      -22.9596762610
 O         6.3150815822        2.3979001224      -23.7322504865
 C         8.3487510908        2.7139319922      -22.4968542885
 C         8.0168021926        1.5721368686      -21.5432092980
 O         7.2167352499        1.8512214297      -20.6760361838
 C         8.5919255853        0.2374043091      -21.7536773337
 C         7.7918783929       -0.8546697628      -20.8665715290
 C         6.3798443546       -0.9800235465      -21.2969993455
 O         5.9660889478       -0.5379000089      -22.3702293870
 C         5.3738389341       -1.8833897455      -20.3997350820
 C         4.6789255578       -0.8939590816      -19.3549478875
 O         4.3369792617        0.1659831954      -19.7825088211
 C         4.4378685520       -1.2066968815      -17.8284933594
 C         3.9893164652       -0.0692349569      -16.9595867760
 C         2.4468121380       -0.1112702321      -16.8234432196
 O         1.8196434819       -1.0026222941      -17.4018506316
 C         1.6640868661        0.9961947538      -16.1872898623
 C         1.4520046751        0.3723783674      -14.6057334754
 O         2.2612522188        0.6555683384      -13.7658626491
 C         0.3942421981       -0.7482255719      -14.4074241116
 C         0.4140060868       -0.9972373651      -12.9411787350
 C        -0.6112322722       -1.9422706664      -12.2809881762
 O        -1.7219220676       -1.8737239305      -12.7346540045
 C        -0.2962070654       -2.9304470366      -11.1095589122
 C        -1.2965460588       -2.1854406843      -10.1277935087
 O        -1.0153091438       -1.1340890858       -9.6415660550
 C        -2.6684157365       -2.8291253576      -10.0636684079
 C        -3.5261947836       -2.1597952510       -9.0348392452
 C        -4.6082396919       -3.0622094085       -8.5276767548
 O        -4.3286023086       -4.1819510335       -8.1246347667
 C        -6.1188711448       -2.5815869849       -8.3069200765
 C        -6.7889634917       -3.2690076121       -7.0716734562
 O        -7.0445604501       -2.5418143701       -6.1885135973
 C        -6.8464762416       -4.7857347202       -6.9299012999
 C        -8.1019552198       -5.1794743368       -6.2246272510
 C        -9.3997297858       -4.3036219558       -6.5195190019
 O        -9.4948051246       -3.3874282993       -7.3404901386
 C       -10.6901933257       -4.8529480195       -5.8817240477
 C       -10.6059146177       -5.1237532959       -4.3450764965
 O        -9.8445428824       -4.5007921737       -3.6197642263
 C       -11.6485078984       -6.0454148671       -3.6312895671
 C       -11.2034513757       -6.9421539220       -2.4244883831
 C       -10.0730330713       -7.8225412529       -2.7303150623
 O        -9.6609092651       -7.8401708673       -3.8876692096
 C        -9.2974277538       -8.7379678659       -1.5942487400
 C        -7.7393349078       -8.4971461385       -1.7191006311
 O        -6.8812299121       -9.3743800873       -1.6630516502
 C        -7.3035062073       -7.0273567007       -1.9413013532
 C        -5.8942064729       -6.6937147810       -1.9101451269
 C        -5.5774312840       -5.4438069024       -2.6178959021
 O        -6.1599098682       -5.0958997296       -3.7252429900
 C        -4.4522799417       -4.5130824018       -2.0296770128
 C        -4.9069164397       -3.0856666697       -1.7097446224
 O        -5.8652271473       -2.5998931388       -2.2652872477
 C        -4.1481724828       -2.1907559137       -0.6453305226
 C        -5.0787886286       -1.1915352869        0.0660578590
 C        -5.9397526050       -1.8543327436        1.2044925540
 O        -5.7577458375       -3.0237709891        1.4603034004
 C        -6.8571748007       -0.9011360777        2.0443009009
 C        -7.7772525340       -0.0800187092        1.0967573270
 O        -7.4723809170        1.0016322483        0.7290003458
 C        -9.2805921069       -0.5003428235        0.9427344747
 C        -9.9108778862        0.1707952767       -0.2943775930
 C        -9.5008193068       -0.4605134183       -1.6105962900
 O        -8.6513467418       -1.3048375833       -1.7569563743
 C       -10.3007848363        0.0768750004       -2.8573078376
 C        -9.7261233809       -0.2837866912       -4.2203792370
 O        -9.4722123034       -1.4481399236       -4.5015058608
 C        -9.3955428507        0.8310098318       -5.2685693613
 C        -9.4066300669        0.3204785609       -6.7240078212
 C        -8.6935286479        1.3096656032       -7.7888074878
 O        -7.5842617324        1.6830103624       -7.5639139724
 C        -9.7320413189        1.9661422859       -8.8458425323
 C       -11.0069199996        1.1502494870       -9.1355660274
 O       -12.0901469352        1.6402225448       -9.0986088886
 C       -11.0801421397       -0.4045427030       -9.5544553286
 C       -10.1345624301        3.4415325786       -8.1914754585
 C        -9.0519384377        2.1383420342      -10.1694943017
 C       -11.5994060790       -0.8005827204       -2.7414282249
 C       -10.6029799317        1.6187615856       -2.7619585741
 C        -7.7122029996       -1.8139786404        3.0533087694
 C        -5.9236098953        0.0865820959        2.7906033256
 C        -3.5917454272       -5.0900688711       -0.8941934664
 C        -3.4012118824       -4.2465422668       -3.2378376690
 C        -9.8006029831       -8.3620878097       -0.1209850661
 C        -9.5304462373      -10.2757590181       -1.7781648648
 C       -11.8901102693       -3.7788410595       -6.0227998661
 C       -10.9674898567       -6.1355014798       -6.5720776370
 C        -6.0920020729       -1.1076010928       -7.9013913046
 C        -6.7891593673       -2.6544235851       -9.6743941829
 C        -0.8512896235       -4.2740226399      -11.4886991072
 C         1.1536731747       -3.0936662789      -10.5587242181
 C         2.5035675470        2.2606117309      -15.9199261393
 C         0.4669306981        1.4282339879      -16.9223179830
 C         4.2350299229       -2.3401352421      -21.4373803024
 C         6.0090098311       -3.1699664273      -19.9331503893
 C         9.1565677403        2.2054861216      -23.7088890075
 C         9.0108780454        3.8517639732      -21.7441495964
 C         1.6692376290        3.3656432165      -24.2283020348
 C         3.0397252183        5.3682122753      -25.2586740009
 H         0.0094680264        6.8276980231      -22.8618115042
 H        -0.3294738129        5.2136050503      -23.6501694992
 H         0.7598047517        6.5019722466      -24.4481287786
 H         4.8803671211        5.8441236115      -22.9716755191
 H         5.5633246090        4.8057058233      -24.3128082931
 H         5.7892360186        4.1861347040      -21.2990544454
 H         6.9238267590        5.1298444195      -22.1008479633
 H         9.5940788946       -0.0191587449      -21.7572453474
 H         8.3125511148       -0.1116532828      -22.7743531321
 H         7.8536456950       -0.7204761564      -19.8083937527
 H         8.3188594243       -1.8710831028      -21.0494425390
 H         5.4454444996       -1.4692075732      -17.4701682467
 H         3.8033317842       -2.0538760835      -17.8645801120
 H         4.2770812050        0.8687998518      -17.3874644387
 H         4.3916552621       -0.2805538939      -15.9896135898
 H         0.6069307490       -1.6090776194      -15.0707549881
 H        -0.5718012519       -0.5291258558      -14.7217160925
 H         0.1906772777        0.0297443600      -12.5568568402
 H         1.4683354099       -1.1021640862      -12.5865115710
 H        -2.5914558438       -3.8379093826       -9.7586371111
 H        -3.1401726453       -2.6082111100      -11.0368528442
 H        -3.8627274964       -1.1976173545       -9.3657443470
 H        -2.9800729349       -1.9259077254       -8.1545432576
 H        -5.9565118633       -5.0677706530       -6.3668861665
 H        -6.8550678664       -5.3243057676       -7.8733764205
 H        -8.0693515969       -5.0776713483       -5.0956277187
 H        -8.3638544488       -6.2006229299       -6.7069618425
 H       -12.0437773626       -6.8174750988       -4.3805875222
 H       -12.5642051943       -5.4603894425       -3.3596527264
 H       -12.0007134720       -7.6181063771       -2.0740828070
 H       -11.0156923287       -6.3354540992       -1.5531170787
 H        -7.8471899131       -6.4629327468       -1.1318330364
 H        -7.7812718236       -6.8459734463       -2.9344719220
 H        -5.2728926799       -7.4968938748       -2.3034226089
 H        -5.6208724715       -6.5702099113       -0.8156317647
 H        -3.4972850615       -1.5878194107       -1.1350920960
 H        -3.5241801809       -2.7241313634        0.1434183800
 H        -5.7635635227       -0.7918082596       -0.7696041922
 H        -4.5564182964       -0.2535086224        0.3418817378
 H        -9.7720293735        0.0165013864        1.8175766977
 H        -9.4685833899       -1.5923718849        0.8916473086
 H        -9.6559029259        1.2579235930       -0.3503864864
 H       -11.0203599411        0.0274408666       -0.3144297698
 H        -8.4377643461        1.2168966788       -4.9120144991
 H       -10.1005791033        1.6716163703       -5.2498463789
 H       -10.4180091765        0.3309159701       -7.0008780533
 H        -9.0856913730       -0.6852250629       -6.7934984995
 H       -10.1125702900       -0.7737981156       -9.2578226302
 H       -11.2004802835       -0.3249236851      -10.5985964759
 H       -11.9712066911       -0.9047588220       -9.1576813233
 H        -9.4754051995        4.2761469908       -8.5214612393
 H       -10.0066541205        3.3921547940       -7.0148740537
 H       -11.1216413327        3.7699781180       -8.4133700370
 H        -9.1409678243        1.2072308037      -10.7523262816
 H        -8.0053160353        2.5587545447      -10.1267396348
 H        -9.7350740778        2.9882212107      -10.6088678174
 H       -12.2943425136       -0.6838698833       -3.5280064456
 H       -12.1817282179       -0.7036444684       -1.8393516286
 H       -11.2700916186       -1.7832631995       -2.9268910625
 H       -11.2747659934        1.8394221379       -3.6303441649
 H        -9.7255988966        2.2730965909       -2.7655391344
 H       -11.2799550642        1.9513353984       -2.0157530416
 H        -8.4668709421       -1.2869401036        3.5921233628
 H        -7.0430934244       -2.2871155521        3.7993391507
 H        -8.2089292061       -2.5651937795        2.5436522252
 H        -5.1077382827       -0.4708824690        3.2616573600
 H        -6.4372570054        0.5385478006        3.5656079564
 H        -5.6402757668        0.8312206371        2.0961148542
 H        -3.0716447682       -6.0476704411       -1.0232008852
 H        -4.0447136950       -5.2152485083        0.0994033912
 H        -2.7442016340       -4.5024455148       -0.7819710566
 H        -2.8478526049       -5.1390820912       -3.4946867111
 H        -2.6627587787       -3.4727085101       -2.9042129571
 H        -3.8547854649       -3.8640833907       -4.1202980709
 H        -9.7498017027       -7.3124846229       -0.0465429123
 H        -9.1752890328       -8.8105045203        0.6040674125
 H       -10.7861606615       -8.8503185074        0.1323614855
 H        -9.1078441220      -10.5897279399       -2.7194053805
 H       -10.6156677752      -10.3320681710       -1.7083373347
 H        -9.0369944260      -10.7928090091       -0.9779125446
 H       -11.9783166331       -3.5114968378       -7.0840526442
 H       -11.5982709570       -2.9019041214       -5.3876538542
 H       -12.7891336057       -4.2161669792       -5.5827707872
 H       -12.0463209067       -6.2032512801       -6.8211627511
 H       -10.5022077795       -6.8819685765       -6.0246606031
 H       -10.5213683635       -6.2607406674       -7.5628254658
 H        -7.1347932840       -0.8919266659       -7.5867169520
 H        -5.7605991435       -0.3384026493       -8.6485673920
 H        -5.4932146555       -0.9993230322       -7.0178739450
 H        -6.6932826401       -3.6079719900      -10.1469620757
 H        -6.3709315217       -1.9207063244      -10.3923544017
 H        -7.8526097559       -2.6276767670       -9.4995168344
 H        -1.1389586126       -4.7666662871      -10.5954585333
 H        -0.0999996927       -4.8410301350      -11.9283063126
 H        -1.6368369738       -4.2943570107      -12.2940965624
 H         1.6695066648       -2.1876093754      -10.2355534703
 H         1.6942891939       -3.6577945585      -11.2923223779
 H         1.0131659134       -3.7512318935       -9.6426792185
 H         3.3403658418        1.8404738510      -15.2740401973
 H         1.8531729850        2.8760362521      -15.2418109047
 H         2.7823324464        2.7470291394      -16.8227703028
 H        -0.3229188056        0.6819081747      -17.0333638138
 H         0.6667522253        1.7884341987      -17.9209046987
 H        -0.0163498909        2.1462060141      -16.2875966090
 H         4.6028246765       -3.0220964905      -22.2084504313
 H         3.8024493159       -1.3825360576      -21.8716120762
 H         3.4149118150       -2.6468333301      -20.8844580951
 H         6.4023896476       -3.5509706060      -20.8777805060
 H         5.2373179416       -3.7605559460      -19.4989550322
 H         6.9380869227       -3.0609343997      -19.3571378298
 H         8.4054459263        1.5566418748      -24.3823951974
 H         9.9327976538        1.5408007460      -23.3381273987
 H         9.7056568398        2.8757415952      -24.3608656429
 H         9.0854604605        4.7781939592      -22.2998096564
 H        10.0561853313        3.6258722010      -21.6878351355
 H         8.7675962044        4.1090762042      -20.7046654132
 H         1.0723986890        3.7816314019      -25.0259316341
 H         1.1028011129        3.1364303488      -23.3302301766
 H         2.2413762477        2.5422466894      -24.6195514810
 H         2.2962851155        5.7018172596      -25.9645785286
 H         3.5785012074        4.5314499999      -25.8695178857
 H         3.7524131014        6.1109196325      -24.9961763681
 Na       -7.7140419274       -2.7252137724       -3.7799957324
 Na        4.9901650381        1.4723578852      -21.6830369111
