232

 C         0.2927140807        6.0698581996      -23.5059871284
 C         1.7394815882        5.5418437281      -23.0546765067
 O         1.9808702417        5.5795823183      -21.8900440122
 C         2.6267124309        4.5362704012      -24.0471614678
 C         3.8240190411        4.0828824160      -23.1500422121
 O         3.6198897464        3.1731597361      -22.3789694877
 C         5.1123143934        4.8819564897      -23.2851423904
 C         6.2447133916        4.4443877754      -22.3388742104
 C         6.8449095005        3.2391255434      -22.9915099834
 O         6.3300070502        2.5475075041      -23.7740981572
 C         8.4399368328        2.7199775045      -22.4684741010
 C         8.0027002664        1.4909999530      -21.5018498052
 O         7.1765643444        1.7149882915      -20.5739817925
 C         8.5973187775        0.1193494232      -21.7259313535
 C         7.7703048750       -0.9694390007      -20.9865075680
 C         6.2848450493       -1.0837406697      -21.3047086880
 O         5.8155449114       -0.4966574913      -22.2815307064
 C         5.3080141160       -1.8652009302      -20.4008641189
 C         4.7189100267       -0.8757560389      -19.3896211937
 O         4.4057693896        0.2574820185      -19.7548602398
 C         4.4401373826       -1.3017747604      -17.8805920522
 C         3.9449787611       -0.1392148982      -17.0267315693
 C         2.3740123882       -0.1344117333      -16.9822504912
 O         1.7470101771       -1.0746509082      -17.3618463411
 C         1.6028405461        1.0447565414      -16.1026601448
 C         1.4172405925        0.3723553876      -14.7521957775
 O         2.1723559365        0.7378524687      -13.8787084651
 C         0.3798230166       -0.6042856489      -14.3391127045
 C         0.4480893034       -0.9580534174      -12.8174624742
 C        -0.6627128384       -1.9171243932      -12.3982014933
 O        -1.8340895684       -1.7438657094      -12.7089076450
 C        -0.2947048887       -3.0359970675      -11.2242495298
 C        -1.2409487436       -2.2442935349      -10.0674613110
 O        -0.8523096553       -1.1926350847       -9.5587408109
 C        -2.6567156506       -2.8416690540       -9.9120892778
 C        -3.5824734418       -2.0271473069       -8.9423594282
 C        -4.6785628611       -3.0321616249       -8.5119510441
 O        -4.4513719473       -4.2277685065       -8.2989047779
 C        -6.1959128778       -2.5032622636       -8.3631328064
 C        -6.7351529325       -3.2059282541       -7.1362156809
 O        -7.0380876213       -2.5437137369       -6.1147900139
 C        -6.9034408305       -4.7565476820       -7.1034563272
 C        -8.0742443102       -5.1748532611       -6.2936255335
 C        -9.3384115719       -4.3049689731       -6.5270464016
 O        -9.2573016500       -3.4970799988       -7.3897870601
 C       -10.6502079127       -4.8658196353       -5.7613998799
 C       -10.5694075919       -5.0914534287       -4.1805512518
 O        -9.6892858886       -4.5645252329       -3.5121572458
 C       -11.7191018123       -5.9440943945       -3.5193341998
 C       -11.3236070761       -6.9816550019       -2.3828317619
 C       -10.0317213782       -7.8881692503       -2.6856373262
 O        -9.5809415109       -7.9729185521       -3.8480478340
 C        -9.3186920196       -8.7129919445       -1.5564633960
 C        -7.7489790023       -8.4462745535       -1.6658945595
 O        -6.9470480145       -9.3266595775       -1.6260006273
 C        -7.3680022742       -6.9491808586       -1.9499547982
 C        -5.9583994914       -6.5688825089       -1.8105492088
 C        -5.5165460088       -5.3462381212       -2.6053154137
 O        -6.2083121283       -5.1292643624       -3.6628212677
 C        -4.2231376660       -4.4132710057       -2.0840734506
 C        -4.8957828118       -3.0144575468       -1.6797511415
 O        -5.8612305822       -2.5920116730       -2.3247065536
 C        -4.2332050727       -2.2337033569       -0.6401737398
 C        -5.1786211341       -1.2610181946       -0.0034709656
 C        -5.8828548413       -1.8772494271        1.2909101567
 O        -5.7030973239       -3.0646531357        1.5916321691
 C        -6.8373294609       -0.9610293663        2.0268481539
 C        -7.8333919333       -0.0721485811        1.1887154140
 O        -7.3842870803        0.8824432137        0.6067572339
 C        -9.2852040827       -0.5415569139        0.9923183184
 C        -9.8056103362        0.1110665676       -0.2200522756
 C        -9.3288722263       -0.4404778578       -1.6123005273
 O        -8.4687631813       -1.2588768077       -1.7609265563
 C       -10.2919609073        0.0711840216       -2.8787422172
 C        -9.5956866933       -0.2130354656       -4.1848010983
 O        -9.4514244964       -1.4203500319       -4.4763770241
 C        -9.3244840824        0.8156786137       -5.2685537489
 C        -9.3961046017        0.3460198587       -6.6180936324
 C        -8.8625198676        1.3152511766       -7.6703459510
 O        -7.6683012571        1.4774806387       -7.7304985443
 C        -9.7502407614        1.8818193568       -8.8095666485
 C       -11.0984524298        1.1146692596       -9.1197542181
 O       -12.1731278711        1.6849867143       -9.0714646550
 C       -11.1426279886       -0.3882413597       -9.6771001663
 C       -10.1411736168        3.2737559717       -8.2459090964
 C        -8.9183313070        2.1029102867      -10.1220305330
 C       -11.5911347864       -0.8143241690       -2.6948062421
 C       -10.6597446998        1.5812661313       -2.5506451403
 C        -7.6298515304       -1.8245736317        2.9804733537
 C        -6.0433637074        0.1364250980        2.8029419922
 C        -3.4802395935       -5.1211388257       -0.9049633459
 C        -3.2076656720       -4.2893571445       -3.1710738411
 C        -9.8651115677       -8.2992983356       -0.1629819658
 C        -9.5449086674      -10.2195805121       -1.8189862563
 C       -11.7773869486       -3.8108796339       -6.0213326972
 C       -10.9917609683       -6.2344970568       -6.5121718294
 C        -6.1073201977       -0.9332209903       -8.1283080420
 C        -7.0036818265       -2.7579234789       -9.7297361143
 C        -0.8427875835       -4.3913416621      -11.5997341487
 C         1.1390222389       -2.9897022938      -10.8115284182
 C         2.5719007773        2.3789706837      -15.8940065904
 C         0.3439660580        1.4404237311      -16.8606503477
 C         4.0752054846       -2.2993302225      -21.3388610717
 C         6.0729187911       -3.1691482378      -19.7753097954
 C         9.3311513263        2.2683259562      -23.6805447576
 C         9.0854110808        3.9031403331      -21.7542836848
 C         1.7525572784        3.3067000950      -24.4049866664
 C         3.0570938020        5.3680348999      -25.2391691947
 H        -0.2239676075        6.6414944493      -22.7523121541
 H        -0.1803594642        5.0858879167      -23.6728664449
 H         0.4039167111        6.6709400776      -24.3764716427
 H         4.9226221900        5.9477798090      -23.0990071769
 H         5.5076067686        4.7234064430      -24.3263505073
 H         5.7416912596        4.1684636795      -21.4154165899
 H         6.9530231013        5.2064261483      -21.9511959031
 H         9.6199110595       -0.0278598928      -21.2689301136
 H         8.7927670810       -0.4250031562      -22.7312595475
 H         7.8142235059       -0.8078165219      -19.8725172573
 H         8.2788558712       -1.8353670738      -21.1539187572
 H         5.3213793279       -1.7853659593      -17.5048865351
 H         3.6858176374       -2.0005146787      -18.0499181139
 H         4.2750969687        0.7807312209      -17.4182577109
 H         4.2046113894       -0.2857095010      -15.9827467452
 H         0.4853479222       -1.4833219468      -14.9337158254
 H        -0.6501901800       -0.3189201360      -14.6143556305
 H         0.5005299735       -0.0651360609      -12.2211828096
 H         1.4026579311       -1.4155981870      -12.5901880174
 H        -2.5703570876       -3.8815810473       -9.4892901375
 H        -3.1032308294       -2.7328813346      -10.8894278786
 H        -3.9890498468       -1.1779214364       -9.4761291719
 H        -3.0995914689       -1.5695930583       -8.0862707595
 H        -5.9981064651       -5.1941917075       -6.6329409459
 H        -7.0223123135       -5.1987591496       -8.0876155813
 H        -7.8587630153       -5.0079564836       -5.1791056986
 H        -8.3422523110       -6.2421681481       -6.6435068084
 H       -12.4410646503       -6.4395979836       -4.2055993961
 H       -12.3574802137       -5.2073631257       -3.0328342307
 H       -12.2000696014       -7.6333799202       -2.0670220825
 H       -11.1520808104       -6.3892338514       -1.4654614382
 H        -8.0929243748       -6.3263262294       -1.4348638107
 H        -7.6217845275       -7.0286553918       -3.0526434754
 H        -5.4258513649       -7.4234741117       -2.2762187883
 H        -5.6773501915       -6.5959322908       -0.7000382650
 H        -3.3429757747       -1.7683631898       -1.0530480733
 H        -3.8945685866       -2.8331106728        0.1597657250
 H        -5.9358149294       -0.9369724696       -0.7018548912
 H        -4.6606470273       -0.2965842403        0.2512029267
 H        -9.8748951959       -0.1106812219        1.7805912828
 H        -9.3088003274       -1.6367003481        0.9420277880
 H        -9.4615680181        1.1424229195       -0.1375289245
 H       -10.9055750419        0.0926939157       -0.2986895963
 H        -8.2924564731        1.1754460923       -5.0059435913
 H       -10.0185230149        1.6717867506       -5.0822056087
 H       -10.3875195732        0.0132755814       -6.8932224603
 H        -8.7397537266       -0.4919456897       -6.6790933724
 H       -10.2372360490       -0.8865880830       -9.3695190412
 H       -11.1667915790       -0.1157068331      -10.7959736629
 H       -12.0630688003       -0.8603458269       -9.4806757488
 H        -9.5309339933        4.1022810782       -8.6144176507
 H       -10.2405353143        3.4135507035       -7.1675703256
 H       -11.0974489733        3.4845309247       -8.7536108497
 H        -8.7532628144        1.0542306635      -10.5137227581
 H        -7.9837863916        2.6441949436       -9.9829464608
 H        -9.5403717931        2.7301460772      -10.7809557211
 H       -12.2585351500       -0.7835987742       -3.5745770318
 H       -12.1588754880       -0.5505696279       -1.8290655091
 H       -11.3324022856       -1.8521763408       -2.6769091437
 H       -11.3858017226        1.9588124859       -3.2313032635
 H        -9.8225236228        2.2873346453       -2.5033379065
 H       -11.1903355231        1.6678157596       -1.5787208783
 H        -8.0014743247       -1.1879408291        3.7717115207
 H        -7.0107652820       -2.5831321883        3.4461417730
 H        -8.5051798983       -2.2851717401        2.5906256985
 H        -5.3550069195       -0.3513623713        3.5195281909
 H        -6.7048936098        0.7500448641        3.4147895992
 H        -5.6065009892        0.7169845281        2.0356842760
 H        -2.9808935018       -6.0444968848       -1.0143755906
 H        -4.1061253215       -5.2861049425       -0.0144235877
 H        -2.6447366815       -4.5399910826       -0.5900836117
 H        -2.8384880021       -5.2980359611       -3.4547469747
 H        -2.3253302365       -3.6828296070       -2.9038973656
 H        -3.6300082964       -3.8047948564       -4.0032123884
 H        -9.3494159452       -7.3731708951       -0.0380387675
 H        -9.6832400118       -8.9695272720        0.6424057504
 H       -10.9515378780       -8.1689389342       -0.1842640194
 H        -9.0156629917      -10.4740792875       -2.6978123593
 H       -10.6155506782      -10.3575588877       -1.8542091613
 H        -9.0942419490      -10.7380035546       -0.9719933962
 H       -11.8192355499       -3.8274171810       -7.1440316135
 H       -11.5471265031       -2.8125746781       -5.5990115660
 H       -12.6996023994       -4.1979345130       -5.5919991169
 H       -12.0364569547       -6.4247888573       -6.7682569236
 H       -10.3658083864       -7.0190994313       -6.0712902378
 H       -10.5083259319       -6.1767663920       -7.5151018517
 H        -7.1031382254       -0.5495828550       -8.1614913676
 H        -5.6205925584       -0.3707791968       -8.9101942243
 H        -5.6069494407       -0.6604918604       -7.1780510159
 H        -7.1317767382       -3.8215454369      -10.0702437455
 H        -6.6096268650       -2.2030478029      -10.5462248244
 H        -7.9952671274       -2.4859224613       -9.4584832229
 H        -1.3029361416       -4.9507851178      -10.7671234472
 H         0.0386135712       -4.9913855817      -12.0320418029
 H        -1.5540153311       -4.3800037754      -12.3836499548
 H         1.2786986791       -1.9742979917      -10.3292185004
 H         1.9110300739       -3.2012857665      -11.7088656019
 H         1.2694024079       -3.7191253277      -10.0187135465
 H         3.4659714408        2.1167016444      -15.2905701488
 H         2.0235367388        3.1148540346      -15.4065702364
 H         2.7439679513        2.6716553714      -16.8939580952
 H        -0.3342407317        0.6378099777      -17.0096535410
 H         0.5844672654        1.7977403014      -17.8214236533
 H        -0.2777239270        2.1282786219      -16.2993496772
 H         4.5503661400       -2.9850429710      -22.0844279911
 H         3.5314266620       -1.4969235079      -21.8098515271
 H         3.2997996106       -2.7620841833      -20.6665826355
 H         6.7357666906       -3.5534575353      -20.5330924229
 H         5.2259368403       -3.8097490519      -19.4063241402
 H         6.7519136022       -2.9106910559      -18.9852162021
 H         8.9500630135        1.4767407730      -24.2910922952
 H        10.3957570610        2.0374671354      -23.2997947699
 H         9.5251857084        3.1184616644      -24.4267749304
 H         9.3979187203        4.7768400153      -22.3041807795
 H        10.0371953363        3.7071477788      -21.2546842809
 H         8.4722704821        4.1974601261      -20.8125375618
 H         1.0266869532        3.5039861660      -25.2142034193
 H         1.3764523687        2.9709301140      -23.4079762394
 H         2.4457523670        2.5828515536      -24.7260795195
 H         2.2049000125        5.6467744851      -25.9363547169
 H         3.6364134444        4.7418149417      -25.8982254128
 H         3.6817685754        6.1651654903      -24.9039481692
 Na       -7.7674870442       -2.8405182719       -3.8162615180
 Na        4.9668012184        1.5772537997      -21.6327080704
