232

 C         0.3289798654        5.9987148219      -23.7082756048
 C         1.6574592123        5.5086798923      -23.1485807519
 O         2.1341621643        5.8202413993      -22.0643165700
 C         2.5731099127        4.5576520030      -24.0972401419
 C         3.7903363781        4.1179237619      -23.2777379934
 O         3.6744058397        3.0777823364      -22.6260116936
 C         5.0279417174        5.0953566794      -23.1527880499
 C         6.2887419209        4.5789690659      -22.4152588096
 C         6.9911226284        3.1964540390      -22.9498673922
 O         6.5527448944        2.5495044914      -23.9580150849
 C         8.3373719228        2.6828144103      -22.3331335214
 C         7.9809157756        1.4355706201      -21.4551403930
 O         7.2127761823        1.6272748993      -20.5546388732
 C         8.5613078771        0.0552867417      -21.7514872495
 C         7.7261564524       -1.0878474737      -21.1189611391
 C         6.2287555249       -0.9740923813      -21.3377250030
 O         5.8120379112       -0.3669428720      -22.2627482933
 C         5.2194895964       -1.8263699409      -20.2998635303
 C         4.6832427547       -0.7498346619      -19.3264930186
 O         4.5934113253        0.3887778021      -19.6959215278
 C         4.2234195122       -1.2665186048      -17.9646478399
 C         3.7812486989       -0.1650484268      -17.0676268738
 C         2.1937458380       -0.1999359002      -16.8779031056
 O         1.5078760744       -1.0846462951      -17.3890374045
 C         1.6006192584        1.0301902622      -16.1163698944
 C         1.4855457512        0.6072537797      -14.6775629259
 O         2.2684600325        0.9136648322      -13.8127029316
 C         0.2253887392       -0.2081758179      -14.3967059197
 C         0.3920369131       -0.9670147305      -13.0520298238
 C        -0.7833945608       -1.8366848143      -12.5606220021
 O        -1.9248396780       -1.7055805144      -12.9451998012
 C        -0.3333054792       -2.7991476856      -11.3916480265
 C        -1.1195335084       -2.4108287628       -9.9775670303
 O        -0.5782549574       -1.6182820368       -9.2886991296
 C        -2.4638340023       -3.0435676363       -9.6589196763
 C        -3.4883461394       -2.1103140315       -8.9980293505
 C        -4.7800556349       -2.9329056564       -8.6760342863
 O        -4.6877327025       -4.1357125533       -8.7337363878
 C        -6.2523074969       -2.4440024581       -8.4303956906
 C        -6.7130985870       -3.1335633072       -7.0434001006
 O        -6.8302765086       -2.5034899948       -6.0415222982
 C        -6.9078624875       -4.6088745636       -7.2123478841
 C        -7.8759860465       -5.2280505670       -6.1869870704
 C        -9.2499646693       -4.5951178305       -6.3353973620
 O        -9.3582563424       -3.6920379886       -7.1865845842
 C       -10.5393542408       -5.0505770138       -5.6616503007
 C       -10.3649704362       -5.2045630207       -4.1178640771
 O        -9.4029174008       -4.7038140705       -3.5306955314
 C       -11.5713354927       -5.7770816591       -3.4520894918
 C       -11.1455739940       -6.7956684243       -2.4248528576
 C       -10.0781131083       -7.8030369801       -2.8131841587
 O        -9.7112477540       -7.9870109073       -3.9464900200
 C        -9.3891665443       -8.5360466851       -1.6198688498
 C        -7.8890072728       -8.2375937070       -1.6304522322
 O        -7.0462531238       -9.1073582947       -1.4162122387
 C        -7.4789129367       -6.7636920895       -2.0692202457
 C        -5.9307975672       -6.3950554600       -1.6731435300
 C        -5.4825558288       -5.2839936418       -2.5383861867
 O        -6.1288712678       -4.8923923574       -3.4688401947
 C        -4.1682126488       -4.5202612832       -2.0824085785
 C        -4.8125726570       -3.0962247381       -1.7681132357
 O        -5.7350976769       -2.6509038868       -2.4725362177
 C        -4.2777272785       -2.2494399723       -0.6255895984
 C        -5.2482376369       -1.2384288861       -0.0112089349
 C        -5.7724776707       -1.8344912832        1.3304160695
 O        -5.6087290528       -2.9631634833        1.7156081618
 C        -6.7831750965       -0.9653839974        2.2508427541
 C        -7.6653529508       -0.2591234324        1.2098982512
 O        -7.1697967510        0.5590603319        0.4625638504
 C        -9.1507807551       -0.7998012762        0.9668677445
 C        -9.7803653254       -0.0070881084       -0.1693232565
 C        -9.3606870949       -0.3912735592       -1.6255948643
 O        -8.3567124532       -1.0757006830       -1.7386080499
 C       -10.3003729567        0.1207806165       -2.8460442151
 C        -9.5695963896       -0.2211130035       -4.1415687140
 O        -9.3268639104       -1.3712245193       -4.3665312762
 C        -9.2150826863        0.8907545730       -5.1465673537
 C        -9.6266982528        0.3187992698       -6.6170593140
 C        -9.0471711294        1.2535126311       -7.6483900158
 O        -7.8401374042        1.3158764642       -7.7392831179
 C        -9.8279931591        1.8673299034       -8.8044407225
 C       -11.2537176139        1.0745350122       -9.1972872675
 O       -12.3285140019        1.5428605555       -8.9422901544
 C       -11.0281388450       -0.2236760025       -9.9062375419
 C       -10.1864557199        3.3182208637       -8.2979887218
 C        -8.9717014940        1.8564770597      -10.1505291604
 C       -11.6048491198       -0.9011085446       -2.7434576483
 C       -10.7090672529        1.5736274555       -2.6132399138
 C        -7.5512639306       -1.8014568459        3.2852218265
 C        -5.9570673408        0.0343873946        3.0416959533
 C        -3.4094533958       -5.1630877165       -0.7875804861
 C        -3.2486794186       -4.3189901705       -3.3269871956
 C        -9.8592618854       -8.2446984983       -0.1498038664
 C        -9.6851920709      -10.1328864416       -1.8509688187
 C       -11.6015449094       -3.8950500748       -5.9366280477
 C       -11.0361285946       -6.3535926312       -6.2393363080
 C        -6.3337864174       -0.9450022054       -8.4237291449
 C        -7.1395789920       -2.8788005189       -9.6169857012
 C        -0.8356316175       -4.2475027182      -11.8314408227
 C         1.1727329592       -2.9550463997      -10.9830145298
 C         2.5095400087        2.2854890888      -16.3053776011
 C         0.2492690015        1.2996669265      -16.7072341236
 C         3.9293548572       -2.5158783437      -21.0170201184
 C         5.9586334738       -2.9615231173      -19.5935187000
 C         9.3153098064        2.3788724156      -23.6003531882
 C         9.0331542342        3.6839064578      -21.3321569644
 C         1.8193614317        3.2691750526      -24.7533266587
 C         2.8786798270        5.5262043428      -25.3632261220
 H        -0.1702833065        6.4389148547      -22.8174874650
 H        -0.1544654446        5.1123206757      -24.0411779412
 H         0.4695007473        6.8095947342      -24.4153572932
 H         4.7119578290        5.9904086179      -22.6045538912
 H         5.3779067793        5.4253328189      -24.1135030064
 H         6.0956871695        4.6313474232      -21.2984161160
 H         7.0621093570        5.3231730569      -22.5505989360
 H         9.6092792607        0.0110095158      -21.5166868932
 H         8.5588814300       -0.2392181242      -22.7576802126
 H         7.8216630376       -0.9881335752      -20.0574381606
 H         8.0379995013       -2.2038175753      -21.3954013844
 H         5.1595167781       -1.7716498973      -17.6599162457
 H         3.4231759147       -2.0765767120      -18.1301912794
 H         4.0537333357        0.8913939703      -17.4006016006
 H         4.1546188785       -0.3886913070      -16.0476423446
 H        -0.0656593404       -0.8745614155      -15.2712850928
 H        -0.5932448967        0.5449510551      -14.3518936794
 H         0.6340627305       -0.2102336646      -12.2909777223
 H         1.3670489561       -1.4611797061      -13.0230491053
 H        -2.3026598278       -3.8373741632       -8.9594171980
 H        -2.8880621312       -3.3634963139      -10.6415605357
 H        -3.7153939127       -1.2549488733       -9.6908014690
 H        -3.0423505731       -1.6160737387       -8.0962025374
 H        -5.9293287902       -5.0838165818       -7.1936232397
 H        -7.3140420128       -4.7379114671       -8.2244124878
 H        -7.4674332005       -5.1274089354       -5.2540254498
 H        -8.1635949756       -6.2032488134       -6.4047096615
 H       -12.2900827379       -6.2806421691       -4.0716736963
 H       -12.1914179623       -5.0031463097       -3.0034643507
 H       -12.0237088248       -7.2900780111       -2.0431354791
 H       -10.7720151066       -6.3235960030       -1.5003186409
 H        -8.2863289302       -6.1040912545       -1.7586257635
 H        -7.4977605556       -6.9134233574       -3.1092833449
 H        -5.3384791650       -7.2847807038       -1.8875480332
 H        -5.7880311453       -6.2308628670       -0.6506516131
 H        -3.4095849827       -1.7389280957       -1.0922200060
 H        -3.8561212194       -2.7878644982        0.3092325944
 H        -6.1914938492       -1.1774454572       -0.5917253396
 H        -4.9554006418       -0.2267911929        0.1124208725
 H        -9.7658191038       -0.7862596770        1.8687832415
 H        -8.9662646394       -1.7922143015        0.6063910173
 H        -9.4945124737        1.0554431266       -0.0582954643
 H       -10.8480323447       -0.0015967146       -0.2726528726
 H        -8.1964914021        1.1920898414       -4.9249761689
 H        -9.9047165434        1.6830029115       -4.8479186607
 H       -10.7575048712        0.2517966088       -6.7114554256
 H        -9.1366301041       -0.7194096975       -6.7293851916
 H       -10.2081959654       -0.6834731672       -9.3181021584
 H       -10.8155369056       -0.0859374306      -10.9088945717
 H       -12.0559957304       -0.6833240769       -9.7949179684
 H        -9.4930486945        3.8270098044       -7.6700212123
 H       -11.0592790714        3.0843443057       -7.6626166901
 H       -10.4170606359        3.9937130740       -9.0629157914
 H        -8.5847673880        0.9351203623      -10.2631379861
 H        -8.2151787189        2.5982946111      -10.1669638292
 H        -9.6722809618        2.2717171887      -10.8513484384
 H       -12.3795191784       -0.7808986554       -3.5222290621
 H       -12.0648003392       -0.8333315731       -1.7006033288
 H       -11.3050772216       -1.9829636943       -2.8475203317
 H       -11.2502604448        2.0026542367       -3.5295845559
 H        -9.8892883993        2.2795061033       -2.3883458819
 H       -11.2601640516        1.6179877529       -1.6881388379
 H        -8.0364600596       -1.2522308436        4.1121305862
 H        -6.8213030527       -2.5253452545        3.7095658987
 H        -8.3517256230       -2.4072555758        2.8182535745
 H        -5.5624778755       -0.5260714896        3.9076346328
 H        -6.6518116085        0.7442647116        3.5263117722
 H        -5.2068168878        0.5796145775        2.3865816011
 H        -3.2296038239       -6.2414929237       -1.0050301032
 H        -3.8165396377       -5.2711143471        0.1970123109
 H        -2.3685260518       -4.8782005068       -0.6251417257
 H        -2.8705417193       -5.2586927341       -3.6973737580
 H        -2.3793481603       -3.6682013050       -3.1950227330
 H        -3.8770042214       -3.7721121479       -4.0675028038
 H        -9.4647119574       -7.2913370195        0.2728986909
 H        -9.4577966198       -9.0870435589        0.4709646822
 H       -10.9764022129       -8.2542644711       -0.1848328009
 H        -9.4336310881      -10.3540159437       -2.9023425609
 H       -10.7388309228      -10.2674310646       -1.6059397358
 H        -9.0547589735      -10.6787552548       -1.1699545394
 H       -11.6436023671       -3.8851857240       -6.9886507068
 H       -11.0384427819       -3.0430011436       -5.6106754020
 H       -12.6067146911       -3.9653829889       -5.5056182076
 H       -12.0535402778       -6.6047135653       -5.8452753733
 H       -10.3198631148       -7.1543393903       -6.1888794932
 H       -11.1486999428       -6.1762821879       -7.3147548623
 H        -7.3687630690       -0.6034074558       -8.5061507965
 H        -6.0409049667       -0.5768485466       -9.4269190093
 H        -5.6904554576       -0.4407401838       -7.7674810505
 H        -7.0736544556       -3.9083036920       -9.8693585198
 H        -6.7362237272       -2.3406572022      -10.5324696756
 H        -8.2218182330       -2.5821454264       -9.5096507602
 H        -0.6458079961       -4.9759986415      -11.0188174436
 H        -0.3362553676       -4.5467966414      -12.7356631990
 H        -2.0200878188       -4.3733971430      -11.8725841323
 H         1.5479716046       -1.9970959866      -10.7338261414
 H         1.6990956719       -3.3492285349      -11.7479840488
 H         1.2272372504       -3.5989216474      -10.0736250721
 H         3.4068953080        2.0426368164      -15.7322410300
 H         1.9714272228        3.1600939202      -15.8764180027
 H         2.5223451590        2.4738301800      -17.3647329336
 H        -0.2794750829        0.3785244280      -17.0053061354
 H         0.3674489711        1.8541762280      -17.6653914692
 H        -0.4945544927        1.8333495352      -16.1447108854
 H         4.2812101142       -3.1213414399      -21.8238539501
 H         3.3191884809       -1.6741610936      -21.4721702403
 H         3.2923599753       -2.9781886307      -20.3262605375
 H         6.2618499936       -3.5870027995      -20.4569498821
 H         5.2512401730       -3.3587456760      -18.9450205738
 H         6.9000406985       -2.7106772142      -19.0352741639
 H         8.9245740118        1.5730387015      -24.3100829401
 H        10.2924403688        2.2512270981      -23.3570883694
 H         9.2722975649        3.1360301752      -24.3067491703
 H         9.4508635496        4.4715016231      -21.9871440248
 H         9.9603701883        3.4446083646      -20.8432683950
 H         8.5136751406        4.0928707588      -20.5135902635
 H         0.8879269466        3.6305015735      -25.1820559423
 H         1.8148168993        2.4876208000      -24.0132314004
 H         2.4624487250        2.8597783576      -25.5844546800
 H         2.0312595632        5.5704965401      -25.9441895740
 H         3.7612958762        5.2794909518      -26.0093413549
 H         3.1170675281        6.4840446273      -24.9214660414
 Na       -7.7612849240       -3.2075894339       -3.8082162487
 Na        4.9933685341        1.7043401066      -21.4839806084
