232

 C         0.2744048888        5.8481081433      -23.7838942520
 C         1.7382438579        5.4776722073      -23.2731493084
 O         2.1897554266        5.9589680878      -22.2738692501
 C         2.6785869491        4.6730869501      -24.2353290964
 C         3.9359002450        4.1058466058      -23.4369466343
 O         3.7811903144        2.9740566401      -22.9671195955
 C         5.0784666572        5.1054547681      -23.2198270370
 C         6.2892005889        4.5212376185      -22.3674646002
 C         6.9064611648        3.2333476710      -23.0165331366
 O         6.4799851619        2.7121852796      -23.9871993296
 C         8.2625122804        2.7092935610      -22.3073095371
 C         7.8265769132        1.3716681609      -21.5321622887
 O         7.1490036352        1.4889734740      -20.4749394804
 C         8.2615468989        0.0270892812      -22.0797505294
 C         7.7313103300       -1.0682044692      -21.1482394804
 C         6.1365655549       -1.0937234378      -21.3147909182
 O         5.6001844967       -0.3835762897      -22.2186223567
 C         5.2439964200       -1.7774825784      -20.2772886986
 C         4.7115964895       -0.7643285545      -19.2286827475
 O         4.5091472354        0.4326830182      -19.3992946617
 C         4.1765419975       -1.2943292630      -17.9359588106
 C         3.6531236760       -0.2458581064      -16.9781850908
 C         2.1017494600       -0.0374328086      -16.9310009481
 O         1.4456114035       -0.9780402605      -17.2458968174
 C         1.3961613294        1.2187198898      -16.2614747394
 C         1.2927731216        0.8379371505      -14.7316642335
 O         2.3029759092        1.0251209568      -14.0595725853
 C         0.0437994961        0.0421963857      -14.0827677575
 C         0.4959790157       -0.9246683136      -13.0422203238
 C        -0.6864088523       -1.6968533956      -12.4498001282
 O        -1.7678099372       -1.7913399895      -13.0488185068
 C        -0.4624748691       -2.7849041169      -11.3770664793
 C        -1.0383095331       -2.5516277877       -9.9544385352
 O        -0.4097408800       -1.9036429623       -9.1100585461
 C        -2.4636769561       -3.2159238238       -9.5931502857
 C        -3.6000237356       -2.2495856663       -9.1127774662
 C        -4.8354882198       -3.1512144508       -8.9626349686
 O        -4.7353175784       -4.3424491593       -9.1787032822
 C        -6.1905515790       -2.5748036651       -8.5102021396
 C        -6.5469321893       -3.2221696583       -7.2047244149
 O        -6.6765990963       -2.4927374940       -6.1821769138
 C        -6.6610354496       -4.7092955197       -7.0133012715
 C        -7.8649092017       -5.2676978370       -6.1953090787
 C        -9.2313765883       -4.5463676667       -6.4451990459
 O        -9.2762374751       -3.6342523928       -7.2010352209
 C       -10.5689504064       -5.0517946901       -5.6310292433
 C       -10.3314559033       -5.3611841183       -4.0974497851
 O        -9.3456793872       -4.9422799528       -3.5142471812
 C       -11.5668315320       -5.6325228639       -3.2723232082
 C       -11.1278456495       -6.4911043173       -2.0246840769
 C       -10.1982071745       -7.6159913967       -2.5679655945
 O       -10.1217966161       -7.6901547112       -3.7904364776
 C        -9.4226339860       -8.6400814503       -1.6093769983
 C        -7.8419715740       -8.2055744542       -1.6155677686
 O        -7.0312137763       -8.9680693820       -1.1700147372
 C        -7.4542100722       -6.8060455707       -2.0399992936
 C        -6.1204743654       -6.4391213620       -1.5889115987
 C        -5.5086507527       -5.3460552831       -2.4308052764
 O        -6.0382311232       -5.1493372076       -3.5645248096
 C        -4.2717608084       -4.4967712289       -2.0448508168
 C        -4.8076285485       -2.8977084752       -1.6783273227
 O        -5.5525918417       -2.3332934126       -2.3707541936
 C        -4.0942917369       -2.1923659238       -0.5833606292
 C        -5.1441426287       -1.3846376191        0.1640140820
 C        -5.6371955323       -2.0159957253        1.5149278757
 O        -5.3828657153       -3.1381346562        1.8542241070
 C        -6.6853683779       -1.0802703875        2.2891002087
 C        -7.6018710787       -0.2617408029        1.2592916684
 O        -7.1893420824        0.6908846466        0.5668392685
 C        -8.9358687248       -0.9166455721        0.9574121778
 C        -9.8096857563       -0.1346357472       -0.1077277690
 C        -9.3366009041       -0.4629631755       -1.6053098946
 O        -8.3883694960       -1.1637735019       -1.7472584660
 C       -10.3698981491        0.0178209214       -2.8121308230
 C        -9.4931627745       -0.3311770482       -4.1196586116
 O        -9.1034584902       -1.4850708774       -4.2689968695
 C        -9.2710207326        0.6846974248       -5.3101126062
 C       -10.0821731631        0.5647889500       -6.5169581506
 C        -9.2184340072        1.2716852300       -7.6447295176
 O        -8.0386987593        1.5327710876       -7.4662784079
 C        -9.9584789228        1.8794434118       -8.9024041894
 C       -11.2447405965        1.0926857177       -9.1945186568
 O       -12.3396320977        1.2864183171       -8.6462316282
 C       -11.0783569892       -0.2634823760      -10.0298083315
 C       -10.3581079076        3.2656947221       -8.4965695107
 C        -9.0630058272        2.0448568411      -10.2539540022
 C       -11.6028450506       -0.8470977843       -2.7921747892
 C       -10.8148951205        1.4809231085       -2.7606416256
 C        -7.4373943880       -1.8969066209        3.3500343678
 C        -5.7915659091        0.0255281923        2.9703079197
 C        -3.4294241725       -5.1177224284       -0.9403870240
 C        -3.4013611019       -4.3476322075       -3.4129523677
 C        -9.8187101233       -8.2581661161       -0.1373210912
 C        -9.5391528697      -10.1242450140       -2.0098865123
 C       -11.6966538089       -4.0565999180       -5.7501163807
 C       -10.9548075974       -6.4440740332       -6.4265780807
 C        -6.2302334239       -1.1273352205       -8.3022893057
 C        -7.1575164380       -3.0062660881       -9.6566338644
 C        -0.9100356428       -4.1562518031      -12.0710386643
 C         1.1098839236       -2.9209350484      -11.1414448319
 C         2.2671377650        2.4562177478      -16.4644090310
 C        -0.0141899719        1.4488468882      -16.9323517951
 C         4.1219259248       -2.2619791331      -21.1099863157
 C         6.1127946835       -2.9971729783      -19.5817091395
 C         9.3392525339        2.3702051696      -23.2821453525
 C         8.8555353554        3.6473086480      -21.1821016805
 C         1.8821458071        3.3683805994      -24.8434754529
 C         3.1128434427        5.6484950051      -25.3916878753
 H        -0.3058565292        6.1210291828      -22.9460392575
 H        -0.1288261549        5.0435566490      -24.4487124807
 H         0.4748286676        6.8090930370      -24.3251095645
 H         4.6661767973        6.1101904215      -22.9291106179
 H         5.5257787080        5.2696824334      -24.2515726898
 H         6.0121015768        4.2207893661      -21.3462634569
 H         7.0940064657        5.2842317292      -22.1910089739
 H         9.4057310699        0.0152822887      -22.0309684987
 H         8.0092745973       -0.1719793497      -23.1361156143
 H         8.2006173811       -0.6176561170      -20.2310298421
 H         7.9640831035       -2.0462449345      -21.2526478637
 H         4.9857122607       -1.9285850815      -17.5658997180
 H         3.3720411940       -1.9452343673      -18.2350430044
 H         4.0028150189        0.7262131211      -17.1276833462
 H         3.9170811580       -0.5799888398      -15.9826555561
 H        -0.6690949407       -0.3724206654      -14.7324257526
 H        -0.4117622724        0.8534375617      -13.4515322946
 H         0.9138750058       -0.2976639591      -12.2223698921
 H         1.4173184793       -1.4737255842      -13.2980049634
 H        -2.3416509991       -4.0087347542       -8.8122029638
 H        -2.8396563383       -3.6669983243      -10.4782524918
 H        -3.7236397094       -1.4394095174       -9.8010172125
 H        -3.4295956919       -1.8362178563       -8.1419426741
 H        -5.8275567352       -5.0831853799       -6.4083744903
 H        -6.5737720585       -5.1978983985       -7.9731291630
 H        -7.6650420004       -5.1170238584       -5.0380307201
 H        -7.9436968467       -6.4505506517       -6.3552858674
 H       -12.4473115241       -6.1352163466       -3.7241070916
 H       -11.9894687688       -4.6332479836       -2.9285156698
 H       -11.9156378446       -6.9018641653       -1.3683903811
 H       -10.5779141035       -5.8171023727       -1.3715768896
 H        -8.2419215492       -6.1762863125       -1.6130566529
 H        -7.4295198576       -6.6891655623       -3.1942922882
 H        -5.4642612902       -7.3102103617       -1.5044017083
 H        -6.3208953117       -6.1307954790       -0.5206964751
 H        -3.3711715972       -1.4714146401       -0.9894793391
 H        -3.6057701826       -2.7786739166        0.0707911707
 H        -6.0447782774       -1.2074455842       -0.4613987227
 H        -4.8058049365       -0.3303717529        0.4734623141
 H        -9.4752352766       -0.8678844491        1.9317543578
 H        -8.7837412825       -2.0090180436        0.6487269224
 H        -9.6834982327        0.9488088784        0.0043350327
 H       -10.9239572968       -0.2757149507       -0.0500705765
 H        -8.2031954562        0.6463075590       -5.5460854566
 H        -9.5454476500        1.6312186864       -4.8850097956
 H       -10.9221648990        1.1901152664       -6.3804740362
 H       -10.3723151774       -0.3715919927       -6.8862337112
 H       -10.2463563445       -0.7137468269       -9.5631653366
 H       -10.7269893801        0.0217539400      -11.0734396194
 H       -11.9935817190       -0.7737138414      -10.0121606900
 H       -10.2773768666        3.4847806879       -7.3976695124
 H       -11.3759840446        3.4926629072       -8.7213496006
 H        -9.5543727962        3.9789696960       -8.9592794383
 H        -8.7057531023        0.9812424280      -10.5613029211
 H        -8.2017695189        2.7153531774      -10.0495285997
 H        -9.6824802285        2.6522281877      -10.8769119652
 H       -12.3807103400       -0.4117304215       -3.4103044017
 H       -11.9176937514       -0.8868503256       -1.7954328707
 H       -11.5122236748       -1.8742119132       -3.0507244403
 H       -11.3473540034        1.8303634923       -3.5683102448
 H        -9.8847728706        2.0128362102       -2.7741100373
 H       -11.1165196329        1.7654014566       -1.7484654066
 H        -8.3044815047       -1.3223659741        3.6227805067
 H        -6.8451261847       -2.0001754137        4.2114008887
 H        -7.7387601584       -2.9098243500        3.0680581842
 H        -4.9975562899       -0.4875940113        3.4346628202
 H        -6.3646847887        0.5010957648        3.7519858464
 H        -5.4631320020        0.6936983422        2.2313035420
 H        -3.1605032774       -6.1353259801       -1.0232235014
 H        -3.9859792842       -5.1888759949       -0.0031524846
 H        -2.5167555016       -4.6181167852       -0.6025448192
 H        -2.9644732219       -5.3442331460       -3.4868467072
 H        -2.5609643136       -3.6995992290       -3.4074880102
 H        -4.0014786235       -4.0814187845       -4.2859321251
 H        -9.7920265124       -7.1627301724        0.0003455310
 H        -9.0625057106       -8.6215571141        0.5619398247
 H       -10.8233533400       -8.5850042421        0.0277936643
 H        -9.5636181308      -10.0875754703       -3.0937916773
 H       -10.5017924874      -10.4736805917       -1.6470693844
 H        -8.6978451718      -10.6854406723       -1.5610200941
 H       -11.8922552928       -3.8715563685       -6.8327314515
 H       -11.4115910166       -3.1743605287       -5.1688576639
 H       -12.6417044975       -4.5402750099       -5.4565591943
 H       -11.8577678705       -6.8361983294       -6.0292722598
 H       -10.1962406512       -7.2429406940       -6.2310695765
 H       -10.9197826034       -6.2806750823       -7.4952593868
 H        -7.2073218958       -0.7254810194       -8.1873373853
 H        -5.8911204802       -0.5475288578       -9.1335448768
 H        -5.4479824756       -0.9296077712       -7.5325370460
 H        -6.6550328015       -3.8215788442      -10.2938929866
 H        -7.3200297669       -2.1447468797      -10.2938755181
 H        -8.1813257728       -3.2578553628       -9.3726501317
 H        -0.8227855559       -5.0141627285      -11.4713462468
 H        -0.2423855039       -4.3074805225      -12.9060171361
 H        -1.9282459362       -4.1865628968      -12.2237935013
 H         1.5712511892       -1.9137440319      -10.9821599600
 H         1.6206454808       -3.2627559220      -12.0951570261
 H         1.3090570761       -3.6006957036      -10.3511439201
 H         3.0397130143        2.3208959577      -15.7419169869
 H         1.6593160811        3.3550992167      -16.3302145291
 H         2.4412283688        2.4602256736      -17.5892886623
 H        -0.6464949486        0.5562123214      -16.8883965727
 H        -0.0473632716        1.8177371255      -17.9537988554
 H        -0.6442207941        2.2219215573      -16.4079689222
 H         4.4601062152       -3.0922557734      -21.7353370698
 H         3.7433547948       -1.5244931418      -21.7179325984
 H         3.2979996342       -2.6045339851      -20.4016879786
 H         6.4891325656       -3.5887288497      -20.3897470001
 H         5.5010690999       -3.5746620744      -18.8261539010
 H         6.8660470977       -2.4526843694      -19.0885895866
 H         9.0167138121        2.2192999438      -24.2345086081
 H        10.0778015194        1.5678911614      -22.9606818387
 H         9.9246742675        3.3162442851      -23.5407136458
 H         9.0981551546        4.6820692544      -21.3298089216
 H         9.7879552381        3.3879651777      -20.7150189785
 H         8.2128086789        3.5116324502      -20.3342752251
 H         0.9080432020        3.7629528907      -24.9411598369
 H         2.0217925294        2.5941768870      -24.0944865894
 H         2.1843171585        2.9574147006      -25.7721005296
 H         2.1356699163        5.9821922989      -25.9203565618
 H         3.8078888567        5.1885768291      -26.0321201909
 H         3.6743965609        6.5418899405      -24.9916131564
 Na       -7.4485404669       -3.0051518239       -3.8775686880
 Na        5.1128504792        1.7924546379      -21.4154546807
