232

 C         0.3155012381        5.8248083154      -23.7233477670
 C         1.8022366484        5.5923333573      -23.3807703959
 O         2.2136928849        5.9916056182      -22.3094233718
 C         2.6877377898        4.6620524007      -24.2945694419
 C         3.8931445956        4.1352721034      -23.4979375803
 O         3.9517455645        2.9913566792      -23.0375185712
 C         5.1048860489        5.0081588900      -23.3216775622
 C         6.1564311767        4.4706886393      -22.3146106344
 C         6.9224746506        3.2989842263      -22.9066795159
 O         6.4781699329        2.8117865581      -23.9652360670
 C         8.2509018125        2.6691448075      -22.2488170165
 C         7.8483446865        1.3664516497      -21.5945104411
 O         7.1531013594        1.3982320975      -20.5441027193
 C         8.1618427589        0.0628180492      -22.1197120078
 C         7.6502361383       -1.0808983329      -21.2685342529
 C         6.1144643535       -0.9608111124      -21.2306746195
 O         5.5989409997       -0.3823759947      -22.1395285752
 C         5.2802173410       -1.7408441178      -20.2250184338
 C         4.6225998802       -0.7515840518      -19.1647719248
 O         4.5743723757        0.3754846618      -19.5441422608
 C         4.0937714927       -1.3441734418      -17.7443884856
 C         3.6186745424       -0.2312315711      -16.8086182555
 C         1.9721770631       -0.0245832880      -16.9421507931
 O         1.2887554836       -0.9981348629      -17.2416052596
 C         1.3234345847        1.2688530905      -16.3521275790
 C         1.2408188404        0.8739522964      -14.8273699242
 O         2.2572332908        1.0753050794      -14.2111292556
 C         0.0543670965        0.3261395860      -14.0237896617
 C         0.4564043310       -0.7621732499      -12.9230486555
 C        -0.6348010821       -1.7599920178      -12.5559265902
 O        -1.7195493110       -1.6039536396      -13.0356690389
 C        -0.3459361158       -2.8990880917      -11.4595222099
 C        -1.0601614366       -2.5811171362       -9.9753805101
 O        -0.4281722740       -2.0239457449       -9.1523825046
 C        -2.3578431323       -3.2501899392       -9.6799541134
 C        -3.5415625761       -2.3698110023       -9.1712501849
 C        -4.8442802635       -3.3401645665       -8.9997261393
 O        -4.7951040679       -4.4604215832       -9.3846309987
 C        -6.1954905188       -2.6700025079       -8.5090229575
 C        -6.5497289832       -3.3629713157       -7.1095349911
 O        -6.6730812209       -2.5703128105       -6.1368135642
 C        -6.6099922161       -4.9006833857       -6.9592793878
 C        -7.8904433048       -5.3193087790       -6.1704658362
 C        -9.1939430575       -4.4805176003       -6.3467912329
 O        -9.3545051056       -3.5957595956       -7.2090047230
 C       -10.4924529889       -5.0703501517       -5.6491619755
 C       -10.2941422333       -5.1945669240       -4.0676648930
 O        -9.1966536178       -4.9557244313       -3.6071837342
 C       -11.5212294497       -5.6071029931       -3.2129389181
 C       -11.0863939385       -6.3468548904       -1.9726137061
 C       -10.3116348712       -7.6068959123       -2.4449796637
 O       -10.1653004035       -7.7131876615       -3.6212486577
 C        -9.4839461972       -8.5173497524       -1.5234375743
 C        -7.9547755544       -8.1643933450       -1.5199223402
 O        -7.1534081039       -9.0207662849       -1.1303917903
 C        -7.4904059140       -6.8005984924       -1.9676161224
 C        -6.0610910647       -6.2915863720       -1.5125093841
 C        -5.4898831003       -5.2858347928       -2.5466942369
 O        -6.0480465598       -5.2072927142       -3.5749322716
 C        -4.2737473599       -4.4084720346       -2.1065041878
 C        -4.6954449457       -2.9522260372       -1.8424521115
 O        -5.5809646563       -2.3048671896       -2.3596344454
 C        -3.9972151387       -2.2528810560       -0.5161894664
 C        -4.9552894684       -1.3294539185        0.3129210120
 C        -5.6260789330       -2.0482643855        1.4561518667
 O        -5.3427616554       -3.1183716503        1.9381331096
 C        -6.6506278618       -1.0853639376        2.2026446130
 C        -7.5549536623       -0.3752903886        1.2146272381
 O        -7.2427789446        0.7684285272        0.8334294001
 C        -8.9833953556       -0.9295313849        0.9133699710
 C        -9.7654060110       -0.1768217157       -0.1678465543
 C        -9.3396728306       -0.6159439182       -1.5840925878
 O        -8.3355856085       -1.3041603132       -1.7393549934
 C       -10.3129189520       -0.1092488114       -2.8249618302
 C        -9.5860321980       -0.4264463194       -4.1264809491
 O        -9.1038757358       -1.5227601599       -4.2636939239
 C        -9.1814337705        0.6925860812       -5.1654314998
 C       -10.1457511643        0.7432454582       -6.4769322453
 C        -9.3908496372        1.4470682563       -7.7097239084
 O        -8.2092656181        1.5926125864       -7.4773425366
 C       -10.0798127985        1.9443100266       -9.0057685185
 C       -11.2632198514        1.0057332271       -9.1722470129
 O       -12.2388463467        1.2110658619       -8.5004551862
 C       -11.1385738032       -0.3037001762      -10.1125744442
 C       -10.6444590656        3.3516491044       -8.5518182685
 C        -8.9968948079        2.0070089928      -10.1992345809
 C       -11.6406511886       -0.9003265082       -2.7754666659
 C       -10.6953335297        1.4107119655       -2.7146444006
 C        -7.3486658630       -1.8978743905        3.3150075528
 C        -5.7319459997        0.0092849530        2.8903984355
 C        -3.5463144934       -5.0733770032       -0.9445406959
 C        -3.4069995650       -4.3001090994       -3.4360135576
 C        -9.7329669809       -8.4821634483        0.0223652188
 C        -9.5319778591       -9.9902736767       -2.0750749811
 C       -11.7261744967       -4.1365001190       -5.9115414228
 C       -10.8778431978       -6.3339206647       -6.4318682124
 C        -6.0300562765       -1.1552469758       -8.3254100607
 C        -7.3451073612       -3.0683369237       -9.6361379068
 C        -0.8939026206       -4.1836859514      -12.0235876697
 C         1.2434046871       -3.0103622132      -11.1060904457
 C         2.0966279838        2.6196283414      -16.4331967821
 C        -0.0701851311        1.4710539293      -17.0092231069
 C         3.9961753983       -2.2980361698      -21.0967608812
 C         6.0894439837       -2.9110227734      -19.5713850172
 C         9.4609959470        2.5075674476      -23.2198084637
 C         8.7261389912        3.7405182183      -21.2136295695
 C         1.9527998277        3.4090821962      -24.9677339086
 C         3.2919173260        5.5746227259      -25.4282002088
 H        -0.2601449193        5.8591763368      -22.8219459069
 H         0.1362219762        5.0173817856      -24.3788818200
 H         0.2418716579        6.8001212312      -24.2624552731
 H         4.7851345176        6.0416715569      -22.9989644348
 H         5.6260256434        5.1644521808      -24.2802358037
 H         5.8041139640        4.2257704185      -21.3367198859
 H         6.8945429357        5.3345152700      -22.1814367904
 H         9.2739695823       -0.1929184962      -22.4308584477
 H         7.5871563538       -0.0039352399      -23.0680474608
 H         8.1898747297       -0.9627217641      -20.3893153399
 H         7.7495997936       -2.1078495927      -21.6905495200
 H         4.9411630923       -1.8432284288      -17.4077049863
 H         3.3596238931       -2.0842806020      -17.9338287508
 H         4.0790312876        0.7339016535      -16.9473455655
 H         3.7910552644       -0.5352766892      -15.7984183416
 H        -0.5329758363       -0.2671870525      -14.6850040205
 H        -0.5047832522        1.2103948163      -13.6474117419
 H         1.1174256179       -0.4843948141      -12.1294752755
 H         1.1539535445       -1.3500921447      -13.5083693957
 H        -2.0922485325       -3.9809939729       -8.8598813064
 H        -2.7201990757       -3.8647826561      -10.5094108144
 H        -3.7730316654       -1.6635862950       -9.9609692806
 H        -3.2865763834       -1.8267078038       -8.2582024442
 H        -5.8075410849       -5.4281598720       -6.4396723296
 H        -6.6462085271       -5.3426841085       -7.9831239176
 H        -7.7650774996       -5.4328018025       -5.0845481084
 H        -8.1554058989       -6.3503166040       -6.5407487909
 H       -12.1146858268       -6.3295150665       -3.6879372213
 H       -12.2743389096       -4.8872168720       -2.8697342815
 H       -11.9442059977       -6.6540170346       -1.3313695594
 H       -10.4720996718       -5.6594581573       -1.2872174339
 H        -8.3456917771       -6.0838750071       -1.9127751297
 H        -7.2165258034       -6.9532362572       -3.0471349323
 H        -5.3344632069       -7.1973820406       -1.4632308051
 H        -6.1210170923       -5.9340888382       -0.4850325512
 H        -3.1817592544       -1.5603331499       -0.7766970471
 H        -3.5868998185       -2.9519891581        0.2027344631
 H        -5.6953160002       -0.9306084000       -0.3580326699
 H        -4.5362433519       -0.4674273412        0.8518090798
 H        -9.5776705461       -0.8871285537        1.8247790294
 H        -8.9374915425       -1.9836531502        0.5836851557
 H        -9.5610171456        0.9204368057       -0.2030867098
 H       -10.8503223055       -0.2232149753       -0.0464290692
 H        -8.2161321487        0.3146783537       -5.5496482472
 H        -9.0362048665        1.6243683490       -4.6115071545
 H       -11.0888935504        1.2051246813       -6.2915012294
 H       -10.2506300863       -0.2266924718       -6.8938732134
 H       -10.1985986533       -0.7190615905       -9.7445180132
 H       -10.9111360827        0.0493699075      -11.0748347921
 H       -12.0622303912       -0.9428592090      -10.0195797425
 H       -11.1458754987        3.3188788188       -7.5671588634
 H       -11.3141208968        3.8622992948       -9.2710853023
 H        -9.6982669308        3.8971465274       -8.3910198985
 H        -8.7923665788        0.9817910530      -10.5087233126
 H        -8.0681041929        2.4057426962       -9.6800210483
 H        -9.2795544794        2.8171347569      -10.9070036682
 H       -12.1966014853       -0.5133113457       -3.5672265723
 H       -12.1701308555       -0.8221958231       -1.8563819254
 H       -11.5371475696       -1.9649583131       -2.8859842489
 H       -11.3743188475        1.6752905775       -3.5061023178
 H        -9.9413120281        2.1349363564       -2.7784388771
 H       -11.0584411719        1.5443685484       -1.7190100134
 H        -8.2699816811       -1.4213141805        3.5655166165
 H        -6.7617953966       -1.9530080856        4.1720450457
 H        -7.5384757187       -2.9487052368        3.0303668971
 H        -4.8706208409       -0.5143545766        3.1597921724
 H        -6.2848388728        0.3776056569        3.7508765984
 H        -5.4851608720        0.8024961974        2.1781566812
 H        -3.2414176553       -6.0815120433       -1.1624646534
 H        -4.0579956109       -5.2188864593       -0.0622624000
 H        -2.6275497347       -4.5704128254       -0.5643070706
 H        -2.9455239882       -5.2434408771       -3.6516747443
 H        -2.5957225431       -3.6487272202       -3.3078904701
 H        -4.0315882321       -3.8956188136       -4.3009973268
 H        -9.4797046061       -7.6861817271        0.7058580858
 H        -9.1780913317       -9.3583368355        0.3326504406
 H       -10.7379894500       -8.6974412162        0.0347131632
 H        -9.4219555134       -9.8401311528       -3.1647037316
 H       -10.4618454933      -10.4861278082       -1.8725907472
 H        -8.6921069947      -10.4694552092       -1.5937254389
 H       -11.9239810165       -3.7865674901       -6.9235304311
 H       -11.6407611880       -3.3653246655       -5.1403609180
 H       -12.5949356915       -4.8328481342       -5.7054686259
 H       -11.7237105433       -6.7222151848       -5.8794070552
 H       -10.1938901390       -7.2243670459       -6.4411250322
 H       -11.0149961897       -6.0171785409       -7.4529798530
 H        -6.9541058061       -0.6411746691       -8.0497219595
 H        -5.7300897563       -0.6097603572       -9.2047829913
 H        -5.2170602816       -1.0100532658       -7.6489225658
 H        -7.0947218700       -3.9441642274      -10.1941194459
 H        -7.6468324828       -2.2401688749      -10.2687682305
 H        -8.2977537833       -3.1837763282       -9.0839292906
 H        -1.2116352204       -5.0045904159      -11.4105430717
 H        -0.2043783889       -4.5869461127      -12.6784848286
 H        -1.9515326956       -3.8935023491      -12.4317789756
 H         1.6214685712       -2.2035827668      -10.3832916945
 H         1.9012634422       -2.9271214167      -11.9678552025
 H         1.3435859043       -4.1113742319      -10.6572183094
 H         2.7368116047        2.5975031435      -15.6371996529
 H         1.3384683319        3.3517819436      -16.3036400180
 H         2.4106113084        2.7693550826      -17.4617361884
 H        -0.6671175366        0.5948847871      -16.8637562994
 H        -0.0841045251        1.6790052253      -18.0721707283
 H        -0.6542083494        2.2795125348      -16.6477345076
 H         4.3367456027       -3.0497129254      -21.8389069042
 H         3.6063274964       -1.4270507726      -21.6855978960
 H         3.1915121082       -2.7325725918      -20.4596789746
 H         6.7322962758       -3.5007341059      -20.2675425239
 H         5.2657260706       -3.4943527165      -19.2205725194
 H         6.5390593236       -2.4328096323      -18.6816544932
 H         9.2783974111        2.2999148028      -24.3576883369
 H        10.1838745365        1.7792196013      -22.8508063258
 H         9.9686707193        3.4871664384      -23.3784505760
 H         9.0466948455        4.7506662612      -21.5983669911
 H         9.6907913057        3.4861360665      -20.6930404321
 H         8.1468174024        3.8533247869      -20.3501746063
 H         1.0927773437        3.7214042470      -25.5236146217
 H         1.9071111460        2.6184786820      -24.2804595963
 H         2.7060600412        3.0716059477      -25.7001299398
 H         2.4138559983        5.9498105235      -25.8768379415
 H         3.9267311190        5.0269018013      -26.1184814946
 H         3.9453839682        6.4476421107      -25.0732495320
 Na       -7.2071890929       -2.8747121580       -3.9208484890
 Na        5.0511395167        1.7582769261      -21.3948533763
