232

 C         0.3345164830        5.8107690459      -23.7267149601
 C         1.8285744655        5.4504090914      -23.3471610719
 O         2.3161017323        6.0393912758      -22.4037196212
 C         2.8339731885        4.6022615520      -24.4496194625
 C         3.9669951242        4.0756196191      -23.4914417032
 O         3.8824488354        2.9491813582      -23.0285977273
 C         5.2054250076        5.0426802499      -23.2868840519
 C         6.1422061032        4.5102427138      -22.2820038577
 C         7.0008501343        3.3709838689      -22.9714950220
 O         6.6291111114        2.7689202028      -23.9660123838
 C         8.3176468161        2.8470113600      -22.1763428738
 C         7.8529139243        1.4506528965      -21.5614866594
 O         7.1996851515        1.4491514552      -20.5613193442
 C         8.2358988593        0.0257216450      -22.2469170363
 C         7.6121027440       -1.1988392429      -21.4329270843
 C         6.1111543985       -1.0102720494      -21.3310083644
 O         5.5060489494       -0.2916558908      -22.0665369919
 C         5.1709432249       -1.7826682178      -20.1398080887
 C         4.5768691399       -0.7373154205      -19.1434980674
 O         4.4204090621        0.4513089179      -19.4034545018
 C         4.0650647144       -1.2152951831      -17.7729431744
 C         3.4247206968       -0.1201121738      -16.8350563990
 C         1.8992610581       -0.0371453759      -16.8619173777
 O         1.2450640734       -0.9528038136      -17.3113824798
 C         1.2031939649        1.2571613081      -16.3165989715
 C         1.2413270668        0.9791962616      -14.7353708969
 O         2.3356993320        1.0893269688      -14.2199279869
 C         0.0160675768        0.4082707369      -14.0601474072
 C         0.5356276815       -0.6232750412      -13.0228810177
 C        -0.5766470636       -1.5995484932      -12.5124420869
 O        -1.7006419703       -1.5640624398      -12.9097743912
 C        -0.2892469643       -2.9252568898      -11.5103829572
 C        -1.0154979507       -2.6433553732      -10.0719569127
 O        -0.4464640190       -1.9994751243       -9.2116284646
 C        -2.3532876041       -3.3889219767       -9.8150296786
 C        -3.5586166407       -2.5943659044       -9.2627973938
 C        -4.8186356344       -3.4017164727       -9.2066416184
 O        -4.8419177317       -4.5940825605       -9.5002134926
 C        -6.1253989721       -2.7654140158       -8.4571936329
 C        -6.5651987418       -3.4030883104       -7.0964838858
 O        -6.6091809365       -2.7175477483       -6.1301222333
 C        -6.7765265055       -4.8546780688       -7.0372638424
 C        -7.9733931773       -5.3510691669       -6.1994943860
 C        -9.2486786804       -4.5386698341       -6.4186593058
 O        -9.2613564346       -3.5563915830       -7.1429015574
 C       -10.5488290130       -5.0792473352       -5.6413232793
 C       -10.2355096498       -5.1519481395       -4.1541633988
 O        -9.1509147358       -4.8356393063       -3.6036037228
 C       -11.4066019518       -5.5091333200       -3.2511570775
 C       -11.0182181045       -6.2574936687       -1.9251359381
 C       -10.1959248833       -7.5357925144       -2.3136895718
 O       -10.1861887504       -7.8350631986       -3.5086986693
 C        -9.4558880300       -8.5279216513       -1.3839400886
 C        -7.9051478554       -8.1529869731       -1.3936136843
 O        -7.1404367903       -9.0193235246       -1.0808516127
 C        -7.4952289619       -6.7516746244       -2.0273640941
 C        -6.0808672283       -6.2613244554       -1.4884656560
 C        -5.5889104435       -5.1810493141       -2.5467202096
 O        -6.0281916662       -5.0831599969       -3.6685759845
 C        -4.2867573979       -4.3777020898       -2.1359347197
 C        -4.7247265220       -3.0184669348       -1.6679924489
 O        -5.5139976866       -2.3248842880       -2.3626461369
 C        -3.9385165987       -2.3388489135       -0.5437994805
 C        -4.7120422601       -1.2932260204        0.2791588066
 C        -5.5707855371       -1.9700579091        1.4590784711
 O        -5.3095018657       -3.0996038237        1.8365911862
 C        -6.5752747338       -1.0645542954        2.2714069622
 C        -7.6377821612       -0.3123069997        1.2978930312
 O        -7.3938443867        0.7771389058        0.9377253370
 C        -9.0081398048       -0.9599779803        0.9203447897
 C        -9.6344526409       -0.1998107237       -0.2003761638
 C        -9.3657703864       -0.6703266725       -1.6263021684
 O        -8.4261570983       -1.4206233046       -1.8718344699
 C       -10.2407428582       -0.1796085761       -2.8179299095
 C        -9.4942498597       -0.4792880187       -4.2022335512
 O        -9.1624087572       -1.6327876158       -4.3558834207
 C        -9.1942559820        0.6507308181       -5.1694123931
 C       -10.1915079205        0.8023742610       -6.3691959715
 C        -9.3421390081        1.5282923419       -7.5481771693
 O        -8.1721580427        1.7019635741       -7.6094940602
 C       -10.1388926477        2.0025620559       -8.8569168413
 C       -11.2885784478        0.9533477550       -9.1582624398
 O       -12.2723463194        0.9797839074       -8.4518500462
 C       -11.2136288782       -0.2403737493      -10.1342113579
 C       -10.7984704280        3.4327812017       -8.7238466380
 C        -9.1205097569        1.9910949678       -9.9479958480
 C       -11.6097828851       -1.0209222027       -2.7613965004
 C       -10.5230516385        1.3254792964       -2.5572809056
 C        -7.3518902031       -1.9347468906        3.3007379716
 C        -5.6662187566        0.0008523101        2.9277745160
 C        -3.5071987537       -5.0812808608       -1.0883950944
 C        -3.3890913806       -4.2577280159       -3.3860134332
 C        -9.8995700313       -8.7338535948        0.1501400989
 C        -9.6096779431       -9.8671249464       -2.1096792383
 C       -11.7416238356       -4.0231514984       -5.9744166671
 C       -10.7843083491       -6.3899348397       -6.3232119777
 C        -5.9805815361       -1.2363474654       -8.3710897573
 C        -7.3331530729       -3.0644825411       -9.3841601591
 C        -0.8031819805       -4.2103313609      -12.0743574760
 C         1.1904071000       -3.0951644018      -11.1435890730
 C         1.9929362304        2.6749099165      -16.5177169087
 C        -0.1646067046        1.3760623889      -17.0498316097
 C         3.9239963108       -2.4393530169      -20.9442730431
 C         5.9573568962       -2.9329233458      -19.5079564872
 C         9.4383140166        2.6941547582      -23.2810069939
 C         8.6566615326        3.8296181787      -21.0888705589
 C         2.0508796833        3.5372105251      -25.0493080494
 C         3.3243453619        5.5682284264      -25.5401069066
 H        -0.2757360067        5.8891526334      -22.7985438585
 H         0.0517667269        5.0710208508      -24.4324875893
 H         0.4054532539        6.7362685028      -24.2347276177
 H         4.8742835258        6.0014717447      -22.8761375364
 H         5.6609090865        5.2823950141      -24.2364930691
 H         5.5724551349        4.0216277963      -21.4462067763
 H         6.7153598804        5.3027609269      -21.8500919360
 H         9.2240421912       -0.2252757803      -22.4563851425
 H         7.7051560474       -0.0689622689      -23.2226407492
 H         7.9790950993       -1.0889314886      -20.4337959594
 H         7.9260896782       -2.2317292709      -21.9030727632
 H         4.9188426877       -1.6579532519      -17.2868656103
 H         3.4211012632       -2.0447885965      -18.0518477248
 H         3.8453280943        0.9189364090      -16.8692526656
 H         3.6395187722       -0.4745014384      -15.8152276429
 H        -0.6783770055       -0.0351129003      -14.8414911165
 H        -0.4727008752        1.1343280685      -13.4587622562
 H         0.8736779180       -0.0059363884      -12.2102737421
 H         1.4833616048       -1.0894196598      -13.2654164601
 H        -2.0770885734       -4.1371372816       -9.0626204628
 H        -2.7002484564       -4.0389412477      -10.6796233914
 H        -3.7774353948       -1.7305382633       -9.9508080216
 H        -3.3296444637       -2.2300869577       -8.2295759327
 H        -5.9589164853       -5.2917187262       -6.4213736514
 H        -6.6841904610       -5.4079401128       -7.9897002528
 H        -7.8532293332       -5.3396891498       -5.1737602050
 H        -8.0650185218       -6.3495862705       -6.4087728744
 H       -12.2061435481       -6.0768905052       -3.6767137312
 H       -11.8767251368       -4.6526359359       -2.8728331358
 H       -11.8748530018       -6.6167884001       -1.3014410731
 H       -10.4457512390       -5.5454870307       -1.2609882149
 H        -8.2844893902       -6.0569523202       -1.6341391043
 H        -7.4777738409       -6.6562540042       -3.0759731848
 H        -5.2500103732       -6.9831958975       -1.2905637602
 H        -6.3022860203       -5.7953984075       -0.5407936674
 H        -3.1234682144       -1.7936504020       -1.0168257023
 H        -3.4563804531       -3.1198460497        0.2078464572
 H        -5.3243524829       -0.7816233370       -0.4468498310
 H        -4.1480554577       -0.6133017529        0.8236575064
 H        -9.7847297786       -0.9912655412        1.6693069836
 H        -8.8756403016       -1.9566590139        0.6110390784
 H        -9.4687013754        0.8901831497       -0.1784659521
 H       -10.7054476502       -0.2866248054       -0.0579810336
 H        -8.2481111680        0.4020773513       -5.6656874208
 H        -9.0643823107        1.5708729913       -4.5664759788
 H       -10.9792687704        1.5461575058       -6.1446956485
 H       -10.6083468218       -0.1054587669       -6.9371194844
 H       -10.2532156255       -0.7762823095       -9.9540324304
 H       -11.1861901182        0.1325718891      -11.1355305521
 H       -12.1249139951       -0.8233728917       -9.8800233509
 H       -11.8329695817        3.2935118472       -8.3966704926
 H       -10.8078329116        3.9518572970       -9.7420500763
 H       -10.3057280275        4.0318969065       -8.0571578068
 H        -9.0484375605        1.0156266148      -10.3070905422
 H        -8.1682086236        2.2680801327       -9.5091853901
 H        -9.3776309973        2.7845820395      -10.6976435542
 H       -12.1207559950       -0.8378821466       -3.6872002078
 H       -12.2899826515       -0.8598536591       -1.9136105872
 H       -11.3640508419       -2.0769377995       -2.6578828367
 H       -11.1495076025        1.5901348558       -3.4376468829
 H        -9.7643470634        2.1072229992       -2.5145190221
 H       -11.0973660183        1.3989446007       -1.6835609418
 H        -8.2169241261       -1.3990062165        3.6821141828
 H        -6.7317871865       -2.3132148844        4.1628390990
 H        -7.6698718184       -2.8187472682        2.8095399651
 H        -4.6626729028       -0.4582167739        3.2355472717
 H        -6.2854424756        0.4503020604        3.6943199948
 H        -5.4808805736        0.7326380309        2.1211970590
 H        -3.3402702917       -6.1569110239       -1.2802345754
 H        -3.8848662859       -5.0708980628       -0.0661414146
 H        -2.5601075352       -4.6493891348       -0.9272662750
 H        -2.8888978062       -5.1601648875       -3.7118403422
 H        -2.5382014426       -3.5890302869       -3.0546476078
 H        -3.8974018490       -3.7265166512       -4.1662093221
 H        -9.5221180424       -8.0067901597        0.8433123772
 H        -9.4365106328       -9.6369556774        0.4504480077
 H       -11.0259404698       -8.7475634685        0.2023407014
 H        -9.4167737447       -9.7601228478       -3.1666584252
 H       -10.6550556606      -10.1704269819       -2.0001461819
 H        -8.9741390189      -10.5258765163       -1.5588773631
 H       -11.6903559145       -3.7223463458       -7.0222169398
 H       -11.7124466999       -3.1576039010       -5.2908967664
 H       -12.6778998771       -4.5948939520       -5.9286497857
 H       -11.5237966849       -7.0038860707       -5.7497656055
 H        -9.9710335943       -7.0638673949       -6.2388784719
 H       -10.9122925482       -6.1707355111       -7.3952278681
 H        -6.8971530374       -0.7811698406       -7.9532283706
 H        -5.8346522282       -0.7314346664       -9.3392378790
 H        -5.1570407272       -0.9502881483       -7.7806509689
 H        -7.2872985512       -4.0458664412       -9.7246275397
 H        -7.4915798287       -2.3208761349      -10.1711718216
 H        -8.2381906739       -2.8645102807       -8.8218308178
 H        -1.0551384800       -5.0031332268      -11.3007113817
 H        -0.0425966595       -4.7526602590      -12.7135035177
 H        -1.8142772996       -4.0728562604      -12.4721978411
 H         1.5157284917       -2.5689001631      -10.2313647813
 H         1.9137554400       -2.7669062551      -11.9280111523
 H         1.2796667151       -4.1962955946      -11.0397298318
 H         2.7643401721        2.5425735808      -15.7503325229
 H         1.3157156853        3.4222771471      -16.2108316227
 H         2.2514960620        2.8073610651      -17.4749981236
 H        -0.7993607875        0.5216321640      -17.0173945476
 H        -0.0166206515        1.5849348587      -18.0856065125
 H        -0.7331762428        2.2046600895      -16.7814880872
 H         4.2747328968       -3.0552173244      -21.8044033734
 H         3.4038400805       -1.5177329879      -21.4107883458
 H         3.2672493364       -3.0528278754      -20.3624458703
 H         6.5958778536       -3.3790823760      -20.3219027161
 H         5.2568155974       -3.7092984712      -19.2603816395
 H         6.4366415408       -2.4617848401      -18.6188375592
 H         9.0093846262        2.0178831212      -24.0999928977
 H        10.2275094846        2.0729351729      -22.8553432975
 H         9.8537636777        3.4770516185      -23.8689422908
 H         9.0574949902        4.7754737509      -21.4516779330
 H         9.5221683396        3.4874995536      -20.5056110642
 H         7.9729010336        4.0170445203      -20.2206470174
 H         1.4943282093        3.9511507683      -25.8882485879
 H         1.5498279507        2.9486140589      -24.2841454478
 H         2.8282486033        2.8829728363      -25.4736619492
 H         2.4664637079        5.8577019618      -26.0862750293
 H         4.1130632923        5.0541192087      -26.1800859993
 H         3.8005490900        6.4294922295      -25.1850940333
 Na       -7.0740446867       -2.8212828897       -3.9224021918
 Na        4.9092704905        1.7122077392      -21.4076841362
