232

 C         0.4905086277        5.6885625659      -23.8133484619
 C         1.9992137401        5.5457235550      -23.5014151264
 O         2.4638477550        5.9950850455      -22.4779678922
 C         2.7942666854        4.6351827457      -24.5154649656
 C         3.9962857551        4.0869391080      -23.5736824010
 O         3.7848332416        3.0405308202      -23.0083452757
 C         5.1333035301        4.9915721009      -23.2131827347
 C         6.2304716050        4.4528399190      -22.2964842206
 C         7.0719987570        3.2680884163      -22.9126437548
 O         6.7872791041        2.8149572503      -23.9602738780
 C         8.3871591987        2.8332322037      -22.1326231519
 C         7.8934813157        1.4567042631      -21.5731733276
 O         7.2444089059        1.5219611362      -20.5497194328
 C         8.1932709645        0.1712604612      -22.2487044672
 C         7.5021052063       -1.1140696527      -21.4989082550
 C         5.9820533645       -1.0193655975      -21.2748074400
 O         5.3484183947       -0.2817694239      -22.0739769625
 C         5.1356496660       -1.8023298719      -20.2198185909
 C         4.4632354828       -0.6303528532      -19.1343688487
 O         4.2921413984        0.5746001507      -19.3870542953
 C         4.0055968550       -1.1835455440      -17.7101232576
 C         3.4301868860       -0.0345958406      -16.9032351744
 C         1.9205401778        0.0193522227      -17.0072301666
 O         1.2005716837       -0.8732495956      -17.3602494876
 C         1.1473490542        1.2796509625      -16.3281272397
 C         1.2232230072        0.9773621968      -14.7417813389
 O         2.3101225080        1.1233926019      -14.1965407058
 C         0.0133347327        0.3478084367      -14.0037459078
 C         0.5057173074       -0.6486158608      -12.8566088712
 C        -0.5705023727       -1.6302693693      -12.4172913410
 O        -1.7399457606       -1.4813960235      -12.8079373704
 C        -0.2332562078       -2.9268286317      -11.5234292823
 C        -1.0352914120       -2.7058175253      -10.1945931337
 O        -0.5818837195       -1.9405660529       -9.3053950098
 C        -2.3847391316       -3.5116804617       -9.9581923180
 C        -3.4890734031       -2.6964121115       -9.3030730593
 C        -4.7920266350       -3.5417504253       -9.1428960322
 O        -4.9562586422       -4.6676627368       -9.6035478564
 C        -6.1369967911       -2.8269646532       -8.4996664531
 C        -6.3807761090       -3.4434555783       -7.0681801326
 O        -6.4749203770       -2.6753428993       -6.1390320347
 C        -6.7878595876       -4.9615131516       -7.1719056139
 C        -7.9434161091       -5.3844693910       -6.2094405496
 C        -9.2239357431       -4.4875863170       -6.4699734177
 O        -9.2201122524       -3.4654953624       -7.0870957924
 C       -10.5142431925       -5.0676436447       -5.7443479538
 C       -10.2352604296       -5.0074015406       -4.1495643740
 O        -9.1530338045       -4.6798474192       -3.6675831809
 C       -11.3632729949       -5.3856411811       -3.1763335747
 C       -10.9361046795       -6.1936281596       -1.8410420184
 C       -10.2210563154       -7.5214886615       -2.2648355592
 O       -10.1958086256       -7.8019178509       -3.4805437096
 C        -9.4561885086       -8.6150124114       -1.3218179800
 C        -7.8518067333       -8.1609125427       -1.2865441361
 O        -6.9702060755       -8.9158461003       -1.0035508382
 C        -7.6239585936       -6.7810804915       -1.9051462785
 C        -6.2051933979       -6.2285779467       -1.6120998191
 C        -5.5629653933       -5.2751191527       -2.5870127409
 O        -6.0812737257       -4.9244350222       -3.6770293292
 C        -4.1832250387       -4.4588960469       -2.1145686896
 C        -4.6743628411       -2.8982101128       -1.5912622854
 O        -5.4859431258       -2.2640039193       -2.2496310181
 C        -3.9069335155       -2.3057259884       -0.5232285455
 C        -4.6238413712       -1.2449624792        0.3081516613
 C        -5.4860277312       -1.8924457241        1.4445958761
 O        -5.3282111370       -3.0835369612        1.6242794622
 C        -6.5759534416       -1.0121241110        2.2249942730
 C        -7.6539298892       -0.2828806682        1.3623504485
 O        -7.4700830928        0.8654008810        0.9896432382
 C        -8.8861213674       -1.0784802546        0.9426620871
 C        -9.6122526726       -0.2756706925       -0.2355394057
 C        -9.2366938725       -0.8063194473       -1.6775254067
 O        -8.4175815540       -1.6293826446       -1.8974911746
 C       -10.2553943622       -0.2363579535       -2.8823831818
 C        -9.5170986175       -0.5255459874       -4.2349248591
 O        -9.2252330853       -1.6915567141       -4.5143021374
 C        -9.1260810830        0.6415156204       -5.1650638135
 C       -10.0525121368        0.9437118792       -6.3044897009
 C        -9.4013375439        1.6420966126       -7.4589777928
 O        -8.1913922830        1.6831942513       -7.4102687573
 C       -10.2186042366        1.9580609911       -8.8702376888
 C       -11.4200441666        0.8226023783       -8.9955166177
 O       -12.4495939149        0.8263501826       -8.2972276004
 C       -11.1562487425       -0.1108303169      -10.2022051150
 C       -10.9361983666        3.3650670244       -8.7853396252
 C        -9.1934546089        2.0246518206      -10.0497331367
 C       -11.4571235326       -1.0743486806       -2.7825816917
 C       -10.5013508063        1.2824243189       -2.5187036127
 C        -7.2850082526       -1.9512850460        3.2509487711
 C        -5.6998219873        0.0106119029        3.0400646390
 C        -3.3513342312       -5.3103874466       -1.0955186658
 C        -3.3901473732       -4.1682038974       -3.3937897122
 C       -10.0908237105       -8.7476263678        0.0762509979
 C        -9.6380629893       -9.9700284001       -2.0321511977
 C       -11.6191854317       -4.0065007760       -5.9538888907
 C       -10.8762123462       -6.5420888301       -6.1549100309
 C        -5.9335000018       -1.2967084889       -8.3584792831
 C        -7.3526067845       -3.0524474466       -9.4100124820
 C        -0.6955139494       -4.1491633373      -12.3191866931
 C         1.3075732276       -3.0709221080      -11.1955155264
 C         1.9137398672        2.5677462028      -16.6745471969
 C        -0.2401924505        1.3135153200      -16.9225043096
 C         3.9301242000       -2.4342869447      -20.8163221001
 C         5.9029326500       -2.9400957485      -19.3879328258
 C         9.3590890701        2.8059090890      -23.2891843634
 C         8.7463411018        3.7710317184      -20.9861618360
 C         2.0114547610        3.4389656793      -25.1257847731
 C         3.3282566592        5.6587915719      -25.5438944763
 H         0.1504802975        5.6745912488      -22.7936966300
 H         0.1153883179        4.8441407983      -24.4474380603
 H         0.2653896607        6.6094640198      -24.3200417025
 H         4.7129130402        5.8397434458      -22.7029126349
 H         5.4881602718        5.4176374860      -24.1659247062
 H         5.7987876848        4.1157442456      -21.2953689807
 H         6.8711366128        5.2814326732      -22.0984618648
 H         9.1914760111       -0.0399261919      -22.0862401763
 H         8.0930193228        0.0065076413      -23.2858291451
 H         8.0958333490       -1.3447943623      -20.5137342299
 H         7.7076266672       -1.8450686379      -22.2772937692
 H         4.8695681939       -1.7360088745      -17.2130748020
 H         3.2977703664       -1.9599913332      -18.1036910738
 H         3.7990310867        0.9627100418      -17.2498892239
 H         3.7172505534       -0.0535991661      -15.8021798138
 H        -0.5721347448       -0.2595838768      -14.7305289306
 H        -0.6298891545        1.0755191168      -13.5020916451
 H         0.9557190915       -0.0721773835      -12.0079241137
 H         1.3973348174       -1.1944707772      -13.2030407068
 H        -2.1885435522       -4.4348360202       -9.4173330224
 H        -2.7638718024       -3.9160043683      -10.9140530895
 H        -3.7900843906       -1.9027559238      -10.0388959527
 H        -3.1126740434       -2.2671862746       -8.3378219468
 H        -5.9644782964       -5.6502778262       -6.9227128056
 H        -7.0156540433       -5.2489692166       -8.1740706361
 H        -7.7888253043       -5.2797751842       -5.1483663704
 H        -8.1308141308       -6.4444383883       -6.2179360324
 H       -12.1909678839       -6.0060591213       -3.5933980852
 H       -11.8510126697       -4.5160263258       -2.7894209318
 H       -11.7277239556       -6.4585688241       -1.1300763541
 H       -10.2224262497       -5.6218940482       -1.2933557925
 H        -8.4572833660       -6.1196239384       -1.7558384178
 H        -7.5985491461       -6.9025154047       -2.9703041714
 H        -5.4857128434       -6.9902314210       -1.6084459973
 H        -6.1325672873       -5.7845260144       -0.6045624536
 H        -2.9449370974       -1.8490040559       -0.8643640050
 H        -3.6633690904       -3.1265463114        0.1532237248
 H        -5.2605183300       -0.6388112454       -0.3586535891
 H        -3.9356437858       -0.6261328947        0.8780869451
 H        -9.6374393902       -1.1559597042        1.7263600960
 H        -8.6003511628       -2.0940586305        0.7147767933
 H        -9.2282887868        0.7394546691       -0.1733652433
 H       -10.6955238489       -0.1108325861       -0.0640328060
 H        -8.1517116597        0.3929904012       -5.6074759185
 H        -8.9714499905        1.5120984457       -4.5188850867
 H       -10.8484122794        1.6800383466       -5.9318381362
 H       -10.4794698305        0.1041931327       -6.9554962260
 H       -10.1669053751       -0.5715430070      -10.2326550196
 H       -11.2144702740        0.6193669354      -11.1051234216
 H       -11.9396212700       -0.8070622060      -10.1826606794
 H       -11.9783816755        3.2106564566       -8.9867232482
 H       -10.5123913472        3.9770964595       -9.5591480536
 H       -10.8188980407        3.9517242595       -7.8522786180
 H        -8.8080128568        1.0033219002      -10.2201887681
 H        -8.4215900395        2.6401254519       -9.7232301902
 H        -9.6747041361        2.3869419554      -10.9393639788
 H       -12.0818331783       -0.9756109295       -3.7296472876
 H       -12.1126662212       -0.8676042987       -1.9151789112
 H       -11.1375840214       -2.1119174810       -2.6003377637
 H       -10.8283629242        1.7883279874       -3.4385940450
 H        -9.5106711603        1.8101122722       -2.3413180295
 H       -11.2334045598        1.5080334703       -1.6889946321
 H        -7.8686440892       -1.3747685708        4.0045366843
 H        -6.4962627149       -2.5460507472        3.7737847538
 H        -7.9035011126       -2.7120547027        2.7909506152
 H        -4.8052703382       -0.5187890484        3.5006563587
 H        -6.4298836798        0.5387389088        3.6858359864
 H        -5.3117759392        0.7030195054        2.2784375994
 H        -3.2013558797       -6.3747092331       -1.2862307401
 H        -3.6742255531       -5.2747897606       -0.0080946208
 H        -2.3945129215       -4.8775172540       -0.9468398191
 H        -2.9369142050       -5.0312802482       -3.9312547144
 H        -2.4840854176       -3.5588019365       -3.0886176345
 H        -3.9712966797       -3.5558789696       -4.0344682128
 H        -9.7245817685       -7.8402894237        0.5777269357
 H        -9.6065663028       -9.5398688564        0.6377229575
 H       -11.2120696406       -8.7162711064        0.0943026854
 H        -9.2175017131       -9.9654625401       -3.0107556265
 H       -10.7207761561      -10.0888389309       -2.1678838631
 H        -9.2755338525      -10.7128173141       -1.3177393858
 H       -11.6730655494       -3.7896898098       -7.0318714608
 H       -11.5172879921       -3.0793750707       -5.3747161819
 H       -12.5186751351       -4.5331618608       -5.7616115484
 H       -11.6694988013       -6.8760651263       -5.5103175341
 H       -10.1655845623       -7.2308985393       -5.7383131411
 H       -10.9405857686       -6.7215708158       -7.2306647281
 H        -6.7888507795       -0.9057124610       -7.7757341034
 H        -5.8495134308       -0.6862653570       -9.2690442663
 H        -5.0621306289       -1.0355504203       -7.7002624321
 H        -7.5471895795       -4.1439091798       -9.4143712785
 H        -7.2024051038       -2.6665390302      -10.3970933336
 H        -8.1790198773       -2.4506965735       -9.1317705454
 H        -0.5688121509       -5.0896596168      -11.6961062691
 H         0.0647206427       -4.3720878284      -13.1790097605
 H        -1.7033812049       -4.1937137507      -12.5762155878
 H         1.6860581946       -2.5105740362      -10.3884853372
 H         1.9230922483       -2.7848784319      -12.0836577209
 H         1.4751098474       -4.0503724789      -11.0458165631
 H         2.8541674856        2.3612163054      -16.1566260579
 H         1.3913531621        3.4386994770      -16.2859639011
 H         1.9831021158        2.5312044967      -17.7809678519
 H        -0.7436862693        0.3681180605      -16.8541846886
 H        -0.2304427457        1.5284824964      -17.9608865532
 H        -0.9103974977        2.0975669159      -16.5676378091
 H         4.1249115064       -3.1813935235      -21.6047042797
 H         3.2485005436       -1.7396373887      -21.1930885566
 H         3.5124556857       -3.0416226413      -19.9842690553
 H         6.3074460298       -3.5456355350      -20.1703775759
 H         5.1888070846       -3.6467376254      -18.8716623016
 H         6.5609182519       -2.3902602587      -18.7648860019
 H         9.2227945101        2.0442388000      -23.9207780961
 H        10.3125380709        2.5717202905      -22.7904210638
 H         9.4928312932        3.6627844287      -23.9224748296
 H         9.0063826009        4.7797032478      -21.2203309782
 H         9.5598758752        3.4511822130      -20.3504058729
 H         7.9501430094        3.8192217507      -20.1906247650
 H         1.6226191212        3.7935100839      -26.0993255042
 H         1.2631818636        3.0294619350      -24.3776180958
 H         2.7366726495        2.6641296579      -25.3406540415
 H         2.5700762459        5.9646374599      -26.3190016806
 H         4.1354728797        5.1073548232      -25.9442484928
 H         3.7322612905        6.5611517056      -25.1759502010
 Na       -7.1256623112       -2.8265667382       -3.8822856770
 Na        4.7472499867        1.6804642804      -21.3931628079
