232

 C         0.3620341903        5.6986297680      -24.0184927392
 C         1.9738635679        5.5749991622      -23.5728856003
 O         2.4996137025        6.2517316895      -22.7347753556
 C         2.9651064658        4.6233298078      -24.5502307930
 C         4.0179647979        4.0750125173      -23.5181613742
 O         3.8377375324        3.0256211511      -22.9762651436
 C         5.2450344071        4.9025790744      -23.2489470403
 C         6.1969051672        4.4630011114      -22.1730151839
 C         7.1952672767        3.3560825673      -22.8452045889
 O         6.9686897030        2.9019234790      -23.9041860940
 C         8.4412376876        2.8216005627      -22.0426342517
 C         7.6828891510        1.5167390993      -21.4930089372
 O         6.9235254959        1.6173466625      -20.5862116064
 C         7.8714773514        0.2121901362      -22.3004859243
 C         7.3463851380       -0.9498433854      -21.4189948875
 C         5.7708822461       -0.8675430258      -21.3528083926
 O         5.0698352552       -0.3390677793      -22.1973550903
 C         4.9648698062       -1.6056851040      -20.1055980528
 C         4.3350533290       -0.5234262266      -19.1831113360
 O         3.9949308886        0.6502284099      -19.5271104024
 C         4.0984686179       -0.9083582215      -17.7006114717
 C         3.2682012027        0.1130974703      -16.9476380241
 C         1.7677648516        0.0270840738      -17.0537955564
 O         1.1773211234       -0.8261533564      -17.6449460400
 C         0.9169147581        1.1852609757      -16.2626782346
 C         1.2302989746        0.8418501223      -14.7829399584
 O         2.2122196432        1.2627006762      -14.2040793635
 C         0.1286874206        0.1209096695      -14.0699110389
 C         0.5011681867       -0.5866517794      -12.7646214916
 C        -0.6019798597       -1.5038890522      -12.4124318242
 O        -1.7716598103       -1.1413855647      -12.5329914300
 C        -0.1725626801       -2.8659362842      -11.7089185949
 C        -1.2567866679       -2.9410823682      -10.5634546030
 O        -1.0194274466       -2.1347449365       -9.6186057500
 C        -2.5600234024       -3.7218880635      -10.5367116265
 C        -3.3935877533       -3.0595673714       -9.3904560084
 C        -4.7756191289       -3.6515153255       -9.2416476653
 O        -5.0483267600       -4.7984782741       -9.6385959707
 C        -5.9672547682       -2.8605999039       -8.6006054419
 C        -6.3493387976       -3.5460226962       -7.2328202636
 O        -6.1404741766       -2.9728455496       -6.2172261949
 C        -6.8520166810       -5.0827274967       -7.2787892788
 C        -7.8611661144       -5.5616510946       -6.2356118725
 C        -9.0953034045       -4.5669766494       -6.3064358823
 O        -9.0207413520       -3.6460496985       -7.0536429143
 C       -10.3817914053       -4.8897554076       -5.5157483948
 C       -10.2229583558       -4.8197035113       -3.9087023759
 O        -9.2423695755       -4.2974045101       -3.3855449590
 C       -11.4169253503       -5.2346412355       -3.0239520944
 C       -10.8298501995       -6.2327032720       -2.0323757387
 C       -10.1239237526       -7.5672624778       -2.5124154736
 O       -10.1780835765       -7.9257967982       -3.7083011006
 C        -9.4541155109       -8.3626670612       -1.4018452301
 C        -7.9469170772       -7.9676382967       -1.1733889492
 O        -7.2098088479       -8.6387010269       -0.5091283753
 C        -7.4080867617       -6.6908909150       -1.8343818371
 C        -5.9340397129       -6.4235652184       -1.6088530767
 C        -5.4560038427       -5.2286471445       -2.4845830690
 O        -6.2253914188       -4.7311554186       -3.3005337564
 C        -4.2165184776       -4.4906155750       -2.1162231296
 C        -4.5922695021       -2.9176926063       -1.4775719557
 O        -5.6298422938       -2.3669781051       -1.9584966879
 C        -3.6960982334       -2.2843817042       -0.4474727069
 C        -4.4544591182       -1.2423038174        0.3635075027
 C        -5.5757005002       -1.8780454983        1.2222380850
 O        -5.7847705908       -3.0731417257        1.1046400484
 C        -6.3418555550       -1.0451508588        2.3370567404
 C        -7.4076752019       -0.3686484468        1.3703345383
 O        -7.4426050898        0.8065434954        1.1585154402
 C        -8.4459661457       -1.2591877206        0.7129009268
 C        -9.2996566943       -0.5552142733       -0.2869311202
 C        -9.1597629660       -1.0827465536       -1.7820327630
 O        -8.4060028277       -1.9956316712       -1.9754115502
 C       -10.0438127654       -0.4129001682       -2.9128164361
 C        -9.3450771595       -0.6403795801       -4.3680973722
 O        -9.3050349161       -1.6918424749       -4.9406280144
 C        -8.9519091604        0.6639723411       -5.1797894070
 C       -10.1183834915        1.1959642176       -6.1378809386
 C        -9.4115533973        1.6633659405       -7.3865526914
 O        -8.2601581665        2.0382749016       -7.4651832988
 C       -10.4373638528        1.8554215405       -8.7410864781
 C       -11.4724000285        0.6334280970       -8.9210843211
 O       -12.1979530122        0.3503677983       -7.9645399293
 C       -11.5886310480       -0.2192282010      -10.2022506037
 C       -11.2244342785        3.1199757194       -8.3286540045
 C        -9.3781160711        2.1945996047       -9.9381752349
 C       -11.3282220234       -1.3264904151       -2.9677186613
 C       -10.3628716640        1.0185503646       -2.5437423121
 C        -7.0455085900       -2.0027474450        3.3212062235
 C        -5.5748582565        0.1234884230        3.1095881130
 C        -3.2289627548       -5.1514425598       -1.1753578372
 C        -3.5152335721       -4.1028314386       -3.4442298663
 C       -10.0817459672       -8.2236182193        0.0968443619
 C        -9.3475763359       -9.8395574635       -1.7845708664
 C       -11.4959216747       -3.9151147795       -5.7913843604
 C       -10.8555694329       -6.3920221243       -5.9455024720
 C        -5.6053049611       -1.3968457311       -8.3655552381
 C        -7.0662289680       -2.7809528201       -9.6176380325
 C        -0.3321341847       -4.0339231699      -12.7496400051
 C         1.2037937096       -2.9281178084      -11.0362314024
 C         1.5068569830        2.6247728315      -16.5500823529
 C        -0.5404476909        1.1105282229      -16.6037476126
 C         3.8148046535       -2.4685896292      -20.6014327137
 C         5.9849948512       -2.4851037130      -19.3694407096
 C         9.6042575855        2.3298577893      -22.8993738854
 C         8.7749868494        3.7095557789      -20.9040951345
 C         2.2502751501        3.3987086793      -25.2949832955
 C         3.6652125920        5.4599530757      -25.6630028921
 H        -0.1520336134        5.8469990182      -23.0608975848
 H         0.1267266470        4.6904779435      -24.4009793654
 H         0.1585722644        6.3584432360      -24.8008327610
 H         4.8855932934        5.9430918754      -23.0692133630
 H         5.7258668657        4.9760886489      -24.2235542360
 H         5.6555514357        3.9574329878      -21.3160365885
 H         6.7355727020        5.3128464700      -21.8370876858
 H         8.8579302140       -0.0110489294      -22.6563819681
 H         7.2065760595        0.3082284769      -23.2542655240
 H         7.7280545896       -0.7510383014      -20.3849348722
 H         7.6833720888       -1.9183849633      -21.8304911707
 H         5.0739080754       -1.0749964042      -17.3471474775
 H         3.6078880910       -1.8419826513      -17.7689184724
 H         3.4521295039        1.1394173954      -17.2380273262
 H         3.4830520385        0.1428080385      -15.9039462608
 H        -0.1270700047       -0.8301192225      -14.6310365778
 H        -0.7509986386        0.6947944416      -14.0430917222
 H         0.7257333514        0.0091226454      -11.8850045868
 H         1.3828728084       -1.1515104674      -13.0396740390
 H        -2.3282585472       -4.7591916777      -10.3397812500
 H        -3.0899538349       -3.8534232810      -11.5219354752
 H        -3.4510555397       -2.0005680422       -9.6042079698
 H        -2.8093681666       -3.2609808154       -8.5095570068
 H        -5.9331375316       -5.7224211466       -7.1959619851
 H        -7.2660537177       -5.3219101949       -8.2806608029
 H        -7.4154466755       -5.5483429324       -5.2740810812
 H        -8.1860184684       -6.5392939538       -6.2274794893
 H       -12.2904773225       -5.6867594463       -3.4915038660
 H       -11.7805685296       -4.4540432803       -2.4106748581
 H       -11.5624784032       -6.6419834203       -1.2799028403
 H        -9.9810844045       -5.6832037653       -1.5250990244
 H        -8.0715497203       -5.8122109331       -1.5743237780
 H        -7.6467259882       -6.7543250257       -2.8951634151
 H        -5.3392970146       -7.3798434519       -1.8674854965
 H        -5.7360115802       -6.2682079309       -0.5101642742
 H        -2.8355347902       -1.7544203060       -0.8327901464
 H        -3.3809520679       -3.1029259511        0.3107169544
 H        -4.9808484639       -0.4892891149       -0.2144384861
 H        -3.7963125676       -0.8172665487        1.0532297438
 H        -9.0022880961       -1.8652522408        1.4530050871
 H        -7.9383688492       -2.0193885973        0.1259447219
 H        -9.1524608277        0.5396769334       -0.1524271090
 H       -10.3657953618       -0.6352810767       -0.0464098689
 H        -8.1394062881        0.3343616633       -5.8210132715
 H        -8.4179690210        1.3206613349       -4.4886621629
 H       -10.7154208896        1.9991749974       -5.7848925550
 H       -10.6925698718        0.3427404743       -6.5432304023
 H       -10.5663405735       -0.4210542788      -10.5716975983
 H       -12.0372406913        0.4406548630      -10.9718331813
 H       -12.1140746675       -1.1036959841       -9.9830483165
 H       -11.1622986493        3.8878258123       -9.1089406526
 H       -10.9350593873        3.3705559667       -7.2820579205
 H       -12.2817766404        2.9376916158       -8.2677819039
 H        -8.5435625054        1.4712180873       -9.9953646856
 H        -9.0412850392        3.1087275064       -9.4741762632
 H        -9.7573996171        2.2082057202      -10.9872296164
 H       -12.2011924850       -0.8690943563       -3.3735948284
 H       -11.5986996005       -1.6139437341       -1.9696961265
 H       -11.0597816422       -2.2188636049       -3.4776242190
 H       -11.0814751477        1.5808763715       -3.1069600156
 H        -9.3878173446        1.4747986920       -2.5716564858
 H       -10.7270569467        1.0501491884       -1.5761523034
 H        -7.7917771231       -1.4815038712        3.8899473893
 H        -6.3330525062       -2.4671529331        4.0435841913
 H        -7.4827527835       -2.7617264718        2.7781741943
 H        -4.9529102761       -0.4072187394        3.8458274708
 H        -6.3210561181        0.7453017552        3.4787451405
 H        -4.9616305605        0.6516105350        2.4516155609
 H        -2.9691538736       -6.1144002148       -1.6387221007
 H        -3.6218071075       -5.4417069649       -0.1770588659
 H        -2.3038092382       -4.7171720213       -0.9727233222
 H        -3.3060517905       -4.9859577133       -4.0416926490
 H        -2.5646699590       -3.5178343341       -3.2824019426
 H        -4.2056065342       -3.5783767684       -4.0079602175
 H       -10.1481496342       -7.2028343013        0.3402487588
 H        -9.4319158358       -8.6491355407        0.7949915110
 H       -11.1287484729       -8.6326969282        0.1444690314
 H        -8.8979846542       -9.9875918264       -2.7470706929
 H       -10.3533339149      -10.3060220021       -1.7934125018
 H        -8.7879124720      -10.1950523020       -0.9263495919
 H       -12.0332319288       -4.2090206322       -6.7102000358
 H       -10.9859035426       -2.9620953033       -6.0458109971
 H       -12.2061869913       -3.7689624513       -4.9733615386
 H       -11.7028428403       -6.9244751257       -5.3925976706
 H       -10.0667930075       -7.1082633851       -5.9399457330
 H       -11.1649809618       -6.2744827509       -7.0163220588
 H        -6.3452670786       -0.7435189408       -7.9619033416
 H        -5.1928641735       -1.0789747197       -9.3150566144
 H        -4.8748701350       -1.2403203794       -7.6206110006
 H        -7.4492960999       -3.7630403212       -9.8361277535
 H        -6.6513733608       -2.2852340793      -10.5154588704
 H        -7.8086335639       -2.0498214873       -9.3505688833
 H        -0.0253151618       -5.0287061037      -12.3449370516
 H         0.3167964815       -3.8623766449      -13.6822287802
 H        -1.2384578105       -4.0955320047      -13.2437730719
 H         1.4850770149       -1.9195045823      -10.5860264741
 H         2.1019873951       -3.3532336798      -11.6889974558
 H         1.2088621474       -3.5286354283      -10.1394269695
 H         2.4343810538        2.6734010181      -15.9553317866
 H         0.7676466153        3.2365558633      -16.1748009514
 H         1.6882213951        2.6680037664      -17.5574740158
 H        -0.9929159777        0.1338513894      -16.7737584234
 H        -0.6980455149        1.5954112702      -17.5756237956
 H        -1.1729241948        1.6922730425      -15.9354192823
 H         4.2149127885       -3.3471990617      -21.1635479175
 H         3.2838849341       -1.8674025099      -21.3536108844
 H         3.1463721665       -2.9185957296      -19.8649366189
 H         6.5810702644       -3.0561630287      -20.0833653441
 H         5.4281418801       -3.2551194012      -18.8032723202
 H         6.4923812155       -1.7446324150      -18.7636414948
 H         9.1876097486        1.8762875234      -23.7546117423
 H        10.4350915749        1.6323911425      -22.4542089094
 H        10.1938059802        3.2279646822      -23.2627516102
 H         8.8644949748        4.7063759101      -21.2798862172
 H         9.6490113428        3.4809360581      -20.2997655783
 H         7.9256488692        4.0048311049      -20.1875605849
 H         1.2768191222        3.6834400046      -25.6650186491
 H         2.1123359578        2.5684444384      -24.6012907388
 H         2.9099155282        3.1929980830      -26.0971480739
 H         2.8769592678        5.9933703423      -26.2493933533
 H         4.3479611382        4.8919792785      -26.3685984082
 H         4.1274204728        6.2806655425      -25.1918246944
 Na       -7.4663248861       -2.8921289144       -3.9504491377
 Na        4.6081476570        1.7980037580      -21.3741624602
