232

 C         0.6966584775        5.6141518480      -24.4486547794
 C         2.1699210620        5.6877858975      -24.1349600105
 O         2.5766823448        6.4955047823      -23.3680812764
 C         3.2373431061        4.6722861884      -24.7538423738
 C         4.2161798971        4.3511501614      -23.6968875470
 O         4.1087398072        3.2821891615      -23.0795541160
 C         5.4987561250        5.2127529309      -23.4522124640
 C         6.2485324713        4.6685845326      -22.2563760467
 C         7.3083829147        3.5797734901      -22.9458298642
 O         7.5282168508        3.6360112964      -24.0875395769
 C         8.2272145234        2.7208755688      -21.8927428985
 C         7.4152382008        1.4574655848      -21.4434086901
 O         6.5585476653        1.5871836584      -20.5560861561
 C         7.4616794667        0.1303110433      -22.1158146861
 C         6.9120196736       -1.0624010190      -21.3002058560
 C         5.4547437913       -0.9818032821      -21.1858379341
 O         4.7700690234       -0.5211419520      -22.0885777061
 C         4.6995247502       -1.6235456145      -19.8880832015
 C         4.0796379443       -0.2736053752      -19.1637466921
 O         3.6640124327        0.6513299696      -19.7998825880
 C         4.2434340322       -0.2993367682      -17.5943371813
 C         3.2604042068        0.7722179398      -17.0391708526
 C         1.7447817822        0.5024437158      -17.3279812780
 O         1.3648440608       -0.3377393526      -18.1214260949
 C         0.7093942555        1.3500814566      -16.4746745177
 C         0.7693421846        1.0312627943      -14.9309833093
 O         1.7058240435        1.5025445924      -14.3111228155
 C        -0.1021472900       -0.0427342320      -14.4257598697
 C         0.5564158254       -0.8206949276      -13.1948380279
 C        -0.6080980114       -1.5456275914      -12.2721237904
 O        -1.7330161925       -1.1146674971      -12.2693525040
 C        -0.2063443029       -2.8896042961      -11.5768436788
 C        -1.1711365716       -3.2580284707      -10.2808271664
 O        -0.5837958025       -3.2554898536       -9.2317501954
 C        -2.6997044523       -3.5011512665      -10.3228789880
 C        -3.3513755088       -3.8964135747       -8.9971960006
 C        -4.8603080198       -4.0627566950       -9.1506940020
 O        -5.3575687980       -4.7602049551      -10.0102224209
 C        -5.9258796664       -3.0201939098       -8.5059902797
 C        -6.3062681796       -3.7603219097       -7.1767103926
 O        -6.0945536643       -3.1255088526       -6.0888589603
 C        -6.8843774237       -5.1779946554       -7.3252369986
 C        -8.0409238451       -5.5567003953       -6.3117840905
 C        -9.1733018046       -4.4697509034       -6.4155923169
 O        -9.0600399150       -3.4018443234       -6.9251084759
 C       -10.6566366733       -4.9329769574       -5.7917321175
 C       -10.2662221213       -5.1996287593       -4.2587000920
 O        -9.2543877417       -4.7831672824       -3.7329273106
 C       -11.3569346553       -5.8576580959       -3.3277066877
 C       -10.7662954590       -6.2309760293       -1.8876436831
 C        -9.8257186752       -7.4708997020       -2.1678996761
 O        -9.4355129457       -7.7015558248       -3.2699800373
 C        -9.3159549660       -8.1503983293       -0.8446266349
 C        -7.7786801255       -7.6940229784       -0.6098952008
 O        -7.2852988304       -7.9967424004        0.4367407189
 C        -7.1181913584       -7.0187228932       -1.7590287854
 C        -5.9281443387       -6.1380956740       -1.3093101666
 C        -5.4297224074       -5.2297550182       -2.4396147048
 O        -6.0576620127       -5.1925290149       -3.5137853478
 C        -4.1089424499       -4.5009296603       -2.3177277319
 C        -4.5730565157       -2.9084627253       -1.6495933230
 O        -5.3965750062       -2.2428312978       -2.2240186404
 C        -3.5715184751       -2.3617086414       -0.6646521950
 C        -4.1173754632       -1.2980820154        0.2555253353
 C        -5.2140398893       -1.9926289365        1.1324939800
 O        -5.3581890548       -3.1806949019        0.9033398691
 C        -6.1939337266       -1.2400123382        2.0402664783
 C        -7.3521439206       -0.4870155204        1.3270353446
 O        -7.3555978285        0.6911568066        1.2848288017
 C        -8.4702996496       -1.3604607571        0.7554053054
 C        -9.2727929619       -0.5816305875       -0.3545114052
 C        -8.9794047326       -0.9837465132       -1.7560913081
 O        -8.2908773449       -1.9367037100       -2.0628836012
 C        -9.7934255254       -0.2977569169       -2.9221301101
 C        -9.0138532336       -0.4043299578       -4.3459795633
 O        -8.6065432556       -1.4206243440       -4.8332284536
 C        -8.7818124836        1.0156931466       -5.0370364578
 C        -9.8955350719        1.5975454830       -5.8433046737
 C        -9.6601489464        1.6879045982       -7.3363071611
 O        -8.5259073119        1.5745369835       -7.7067258600
 C       -10.9114356776        1.8761587969       -8.3096767584
 C       -11.2971673993        0.4094658776       -8.6476122681
 O       -11.4400412239       -0.3011560694       -7.6704096054
 C       -11.7731136029        0.0166311228      -10.0351009592
 C       -12.1452769818        2.5605460161       -7.5745246932
 C       -10.6099425340        2.5419980376       -9.5687861472
 C       -10.9823084634       -1.3026217586       -3.1451922882
 C       -10.4441676983        1.0774772243       -2.7277809447
 C        -6.8187577267       -2.2759456767        3.0016806325
 C        -5.4405754288       -0.2403594528        2.9362607407
 C        -3.1178467852       -5.2062315257       -1.3871445613
 C        -3.5595049227       -4.2338287963       -3.7598399217
 C       -10.2547057462       -7.9977061320        0.3315952365
 C        -9.3437053670       -9.7283874249       -1.1529179870
 C       -11.5276894169       -3.7143928595       -5.9509409133
 C       -11.3224559120       -6.1660896014       -6.4970351506
 C        -5.3220996619       -1.6680595791       -8.1887322665
 C        -7.1640420574       -3.0246965802       -9.4345630059
 C        -0.3877366081       -4.0662752163      -12.6485553374
 C         1.2151926507       -2.8293824380      -11.1499546756
 C         1.0430865935        2.8364558351      -16.6125588332
 C        -0.6929528272        1.1694882072      -17.1282290408
 C         3.3265570252       -2.3554474967      -20.3190187580
 C         5.6766453666       -2.4947542387      -19.1518056091
 C         9.6161950069        2.4412010634      -22.6341591754
 C         8.6199598979        3.5594934636      -20.6745498692
 C         2.5401623485        3.4495107983      -25.3267673044
 C         3.8920274401        5.4359631774      -25.9847457403
 H         0.3463803157        6.6601093815      -24.7369767326
 H         0.1539204356        5.3952716187      -23.5642135122
 H         0.5616250053        4.8642992905      -25.2369083207
 H         5.2036239502        6.2266881126      -23.2992448654
 H         5.9678149665        5.1981279290      -24.4200435432
 H         5.5761463746        4.2248868239      -21.5686978243
 H         6.9191486532        5.4266808639      -21.7509434491
 H         8.5146839442       -0.0177657672      -22.3512766392
 H         6.9390328349        0.1343766487      -23.0178178523
 H         7.3900939186       -1.2002395699      -20.4054530901
 H         7.2312516740       -1.9872805656      -21.9603091784
 H         5.2344155224        0.0735624631      -17.3751000238
 H         4.1893854180       -1.3557201479      -17.3032960886
 H         3.5353345566        1.6697428730      -17.6236331814
 H         3.4447899565        1.0068993713      -15.9628834021
 H        -0.4548652130       -0.7789339121      -15.1013452256
 H        -1.1035340925        0.3732781007      -14.1001473946
 H         0.9119237361       -0.0786822757      -12.5306924015
 H         1.3012060550       -1.5269608741      -13.5090454631
 H        -3.0108875319       -4.2247993749      -11.1311025482
 H        -3.0995484546       -2.5402486650      -10.6545810286
 H        -3.0442797531       -3.1971316515       -8.1825424774
 H        -2.8416906457       -4.8280200794       -8.6042900419
 H        -6.1384225636       -5.9108963363       -7.0331934862
 H        -7.2034766865       -5.3535335226       -8.3570716635
 H        -7.7537904943       -5.5275023616       -5.2516548468
 H        -8.4863816696       -6.5335778747       -6.4892921510
 H       -11.8526688322       -6.6954691751       -3.7219331830
 H       -12.0911501537       -5.0678030728       -3.1544713302
 H       -11.5070573958       -6.5427865241       -1.1504931505
 H       -10.0784955269       -5.4472190043       -1.4979093875
 H        -7.6553973782       -6.3570781159       -2.3643321825
 H        -6.9149786192       -7.8845791179       -2.4401590091
 H        -5.1004913444       -6.7461161896       -0.9327728042
 H        -6.2040389519       -5.4834346318       -0.4730265827
 H        -2.7307054771       -1.9031705878       -1.2143357437
 H        -3.1614829877       -3.1814050223       -0.0333654663
 H        -4.4731996165       -0.4082633345       -0.1738823506
 H        -3.3458081855       -1.0909523919        1.0206493580
 H        -9.1033183652       -1.8197382666        1.4626292982
 H        -7.9947064656       -2.2266334056        0.3144632372
 H        -9.2284860518        0.4872115498       -0.2250049592
 H       -10.3337631198       -0.7664564453       -0.1301113384
 H        -7.8602142332        0.9149753040       -5.6973796010
 H        -8.4642858723        1.6605657121       -4.2169568608
 H       -10.1914447374        2.6486699161       -5.4498678425
 H       -10.8159622287        0.9490038706       -5.6289965264
 H       -12.0763885046       -1.0473859047      -10.0409164448
 H       -11.0897334425        0.3036840514      -10.7649956927
 H       -12.7054766446        0.6269173992      -10.2994255846
 H       -13.0227831835        1.8615204502       -7.5006639345
 H       -12.4171702326        3.4099159543       -8.1879966933
 H       -11.8740975711        2.9621980746       -6.6713280387
 H        -9.8452790496        2.1163347839      -10.1165221364
 H       -10.3543225122        3.6014234405       -9.3645002569
 H       -11.5814095610        2.5934574367      -10.0741900183
 H       -11.6941381715       -1.0799865514       -3.8797082203
 H       -11.4379799940       -1.4117664226       -2.1915940424
 H       -10.5182497642       -2.2290624640       -3.4506692448
 H       -11.0773349849        1.3247106157       -3.6143936690
 H        -9.7283450200        1.8510780137       -2.5817747910
 H       -10.9903198174        1.0624827206       -1.8024666569
 H        -7.1407356785       -1.8488553649        3.9219294956
 H        -6.0814203148       -3.0296153540        3.1787176680
 H        -7.6834238069       -2.7780445957        2.5752603179
 H        -5.0264898248       -0.7614909552        3.7999973388
 H        -6.1182688305        0.4813914283        3.3607499378
 H        -4.6973740331        0.2104371686        2.2648705916
 H        -2.8868354814       -6.2383111027       -1.6895933189
 H        -3.3973702090       -5.2257844805       -0.3568930183
 H        -2.1615503390       -4.6120600507       -1.5487276339
 H        -3.4582466625       -5.1721926447       -4.3016489317
 H        -2.6131393984       -3.7404509787       -3.6849150365
 H        -4.3049366788       -3.5816382640       -4.2856230942
 H       -10.5659131246       -6.9902674692        0.4948548399
 H        -9.6779935381       -8.2931136174        1.1986667471
 H       -11.0759790838       -8.6623289654        0.3193954145
 H        -8.5866089050       -9.8656927347       -1.9367379017
 H       -10.3486941105       -9.9318130394       -1.4682267650
 H        -9.0796819383      -10.3544493845       -0.3143281724
 H       -11.5487646523       -3.4843074091       -7.0189594618
 H       -11.1267808037       -2.8400831458       -5.4341300678
 H       -12.5586166850       -3.8611456078       -5.5389911443
 H       -12.2579495873       -5.6938087706       -6.8828130371
 H       -11.4378233619       -7.1148752295       -5.9916334371
 H       -10.8754337783       -6.4867677523       -7.4565490658
 H        -6.0877241148       -0.8930447599       -7.9744426065
 H        -4.8322872139       -1.2592025205       -9.0744772079
 H        -4.5621372630       -1.7203692020       -7.4615117124
 H        -7.6735451577       -3.9150451568       -9.3326028655
 H        -6.8382599160       -3.0930639172      -10.4595079401
 H        -7.8997322183       -2.2637089977       -9.1375737699
 H        -0.0016794608       -5.0816311771      -12.2554204007
 H         0.0991788849       -3.9354084465      -13.6243794545
 H        -1.4208953969       -4.2323615091      -13.0591679064
 H         1.4263995610       -2.1972784641      -10.2749197872
 H         1.8517571636       -2.4300082650      -11.9530138947
 H         1.6727173916       -3.8112997078      -10.8920350022
 H         1.9047759962        3.0181027366      -15.9021339457
 H         0.1440724756        3.3218397488      -16.3409323581
 H         1.2239765922        2.9523395378      -17.5979502998
 H        -0.8745351953        0.1348491571      -17.3999374526
 H        -0.7388352872        1.7911997517      -18.0254411317
 H        -1.4981527089        1.3634916945      -16.4604938123
 H         3.3986414831       -3.3406775695      -20.7928675551
 H         2.7528524883       -1.6663677835      -21.0717421511
 H         2.6202745908       -2.3178044990      -19.5104706391
 H         6.2381825862       -2.9409180764      -19.9985900984
 H         5.2636164449       -3.1309906992      -18.4231440041
 H         6.5150666895       -1.8942390752      -18.7026535202
 H         9.5100075653        1.8542866976      -23.5742311844
 H        10.3421353253        1.9187716623      -22.0065674541
 H         9.9971394061        3.4062640166      -22.9056236657
 H         9.0324402862        4.5330120031      -21.0558312703
 H         9.4300087417        3.3078833555      -19.9544493659
 H         7.7065095718        3.8873200033      -20.1798389454
 H         2.1019844889        3.7628279588      -26.2788990079
 H         1.7313824558        3.0890245523      -24.7108892834
 H         3.1909029900        2.5540027746      -25.5054752485
 H         3.1010861042        5.6880348756      -26.5980770073
 H         4.4476342138        4.6792021772      -26.6342463983
 H         4.5019838427        6.3092162395      -25.7874169872
 Na       -7.3406437802       -3.1037632614       -3.7574808966
 Na        4.3913875918        1.7751243210      -21.4318867772
