232

 C         0.9816066855        5.7938161599      -24.9609047957
 C         2.4984966207        5.8997248202      -24.5035341144
 O         2.9044633377        6.8119542719      -23.8047936030
 C         3.5449750270        4.7309384555      -25.0731537888
 C         4.3492824651        4.1833050577      -23.8449793264
 O         4.0954621010        3.1120877772      -23.3587446416
 C         5.4278996736        5.1365640044      -23.3839864466
 C         6.2502752932        4.5497097738      -22.3053794770
 C         7.4614420024        3.7578279213      -22.8187259782
 O         7.5921124826        3.5183996042      -24.0330959032
 C         8.3768062237        2.8264602442      -21.8299639395
 C         7.3944145518        1.7041653836      -21.5443685946
 O         6.2943198101        1.9981164948      -20.9634642233
 C         7.5076682347        0.1566552134      -21.9939211686
 C         6.6679642567       -0.7714766637      -21.0163559335
 C         5.1144589202       -0.7728430731      -21.1633555712
 O         4.5204886299       -0.5151318393      -22.1893438196
 C         4.3900117901       -1.2781521701      -19.8128083389
 C         4.0550875387        0.0442228515      -18.9985449266
 O         3.5280707827        1.0328957714      -19.5748610333
 C         4.0944842431        0.0576757478      -17.4488616327
 C         3.0947250986        0.9973737300      -16.8249386048
 C         1.6595817727        0.6186305087      -17.2010424128
 O         1.4566939871       -0.3684173171      -17.8577058916
 C         0.4353137850        1.3159325047      -16.4696003641
 C         0.4178806751        0.7276406344      -14.9622556327
 O         1.3542487312        1.0158199244      -14.2452603257
 C        -0.6797380074       -0.2416749808      -14.4042350004
 C         0.0841426776       -1.2982737425      -13.5207037809
 C        -0.7678456054       -1.6763684627      -12.3073107092
 O        -1.7838412756       -1.0687581723      -12.0308753250
 C        -0.3195885864       -2.9923738141      -11.5645601189
 C        -1.0553259391       -3.2702934591      -10.2475542256
 O        -0.5052209363       -3.8382294079       -9.3164694253
 C        -2.5988186572       -2.8795835340      -10.0280667951
 C        -3.2659335148       -3.8715353127       -9.0810123334
 C        -4.7436516974       -3.8401538555       -9.2411714105
 O        -5.1815265539       -4.6579198702      -10.0260200951
 C        -5.8212654630       -3.0433430512       -8.4079473444
 C        -6.2870041145       -3.7971295807       -7.1135902998
 O        -6.3239061120       -3.2595452344       -6.0402393584
 C        -6.6781098881       -5.2293691799       -7.3629618683
 C        -7.7828953627       -5.6207196563       -6.3530286303
 C        -9.0557137226       -4.7603636469       -6.5636662966
 O        -9.0757727498       -3.7307523448       -7.2458913841
 C       -10.3811134899       -5.1042651424       -5.8611536857
 C       -10.2493338173       -5.2133132852       -4.2817539179
 O        -9.4333414715       -4.3931616612       -3.7661166946
 C       -11.2222219505       -6.0710467342       -3.5056118687
 C       -10.7906290195       -6.3267390530       -2.0743313352
 C        -9.8497292860       -7.5476702141       -1.9249654969
 O        -9.5303564972       -8.1512051165       -2.9663314363
 C        -9.3190126239       -8.1123101822       -0.5940393874
 C        -7.9359649809       -7.2310813192       -0.2504700320
 O        -7.6104128776       -6.8530417322        0.8448558041
 C        -7.0160949374       -7.0250304222       -1.4866471158
 C        -5.6323410699       -6.1386148376       -1.2072390896
 C        -5.2476529711       -5.4161401885       -2.5052745045
 O        -5.9287401952       -5.4063851505       -3.4905362488
 C        -3.9367185106       -4.4753662952       -2.5100420949
 C        -4.4445635000       -3.0903881470       -2.2284656752
 O        -5.4495137339       -2.5854878762       -2.7798906599
 C        -3.7464998462       -2.1602240080       -1.2319408569
 C        -4.7035670599       -1.4244714066       -0.2790766452
 C        -5.3102707260       -2.3629630142        0.8239807655
 O        -5.2805978718       -3.5703944233        0.7503302148
 C        -6.0384956003       -1.5260244347        2.0286921417
 C        -7.1234274876       -0.6447036572        1.2379396747
 O        -6.7761453373        0.4554821279        0.8193620798
 C        -8.4847488787       -1.2411503664        0.8045894775
 C        -9.2369741195       -0.4021864648       -0.2736360750
 C        -8.8769020116       -0.9333949367       -1.7040314689
 O        -8.1672731996       -1.9303947153       -1.8870104691
 C        -9.5740182236       -0.1203429333       -2.9715697431
 C        -8.4808962491        0.0339460396       -4.0546335880
 O        -7.6675226148       -0.8564123988       -4.3451119423
 C        -8.5441448900        1.2881751364       -4.8985504225
 C        -9.9768625253        1.5115287602       -5.5780482881
 C        -9.9372637093        1.6725996267       -7.0795368235
 O        -8.8960418908        1.5135709879       -7.6801861719
 C       -11.2545637505        1.6683575368       -7.8982044055
 C       -11.5096158061        0.1922616750       -8.4415221257
 O       -11.7417481818       -0.6771932828       -7.6295858614
 C       -11.7806666859        0.0533519294       -9.9805914437
 C       -12.5501555146        2.0367927863       -7.1214280225
 C       -11.2659457128        2.6717421881       -9.0076888332
 C       -10.7135311936       -1.1660929596       -3.2907826168
 C       -10.0458204209        1.2589064192       -2.4147220652
 C        -6.7635171489       -2.5129190788        2.9676149052
 C        -4.9595481197       -0.7111244232        2.6871934146
 C        -2.8157441129       -4.9087838470       -1.4479047022
 C        -3.3189176178       -4.4417828008       -3.9183991918
 C       -10.3950108183       -7.8317896530        0.5008618407
 C        -8.8704891664       -9.5270392191       -0.5447787460
 C       -11.3357027042       -3.9194393758       -6.2473068483
 C       -10.9214441307       -6.3815848382       -6.6702372998
 C        -5.3526324660       -1.6699985305       -7.9570021801
 C        -6.9369343263       -2.7322601692       -9.3861305898
 C        -0.5301953689       -4.2471296022      -12.4376120964
 C         1.2422003325       -2.8762930300      -11.1865509130
 C         0.6796546458        2.8513729853      -16.2357161233
 C        -0.8127452158        1.0636483784      -17.2490264180
 C         3.0888405315       -1.8308960274      -20.2540751434
 C         5.2565450606       -2.2808181655      -18.9179952388
 C         9.6266932180        2.4503838462      -22.6054095295
 C         8.4717650532        3.6628755019      -20.6098154175
 C         2.7069605060        3.6321103700      -25.6242806279
 C         4.3889716835        5.3795143801      -26.1657435097
 H         0.5203879524        6.2250967848      -24.1021059423
 H         0.4309220685        4.8653239592      -25.2885915297
 H         0.9129675683        6.5979809759      -25.6702523579
 H         5.0216140697        6.1095498353      -23.1275625600
 H         5.9900708687        5.2227064388      -24.2825735403
 H         5.7962001876        3.8350905318      -21.6070187997
 H         6.6671291324        5.3867518004      -21.6996665273
 H         8.4972545527       -0.1050224367      -22.0199137577
 H         7.0762172410        0.1421050744      -22.9684803247
 H         7.1547877952       -0.7071813623      -20.0329653064
 H         6.8449899200       -1.7268347392      -21.3200717411
 H         5.1101545863        0.3497458644      -17.2172182164
 H         3.9023215129       -0.9893641334      -17.1564113056
 H         3.4148070844        2.0430003784      -17.0801523451
 H         3.1353298885        0.8765807875      -15.7482876432
 H        -1.3570682168       -0.6743722943      -15.1826472752
 H        -1.2942653333        0.3479240615      -13.7158912182
 H         0.9270728966       -0.7274562065      -13.2599745180
 H         0.4089712624       -2.2254353370      -14.0284528616
 H        -3.2122403919       -2.8251928481      -10.9176838253
 H        -2.5011122994       -1.8542735148       -9.5709197300
 H        -2.9305731030       -3.7484621009       -7.9978701378
 H        -2.9005164657       -4.9065360499       -9.3617511188
 H        -5.7519572164       -5.7819325109       -7.2168119643
 H        -7.0296024336       -5.4080922640       -8.3984225142
 H        -7.4376729101       -5.4100658682       -5.3044062440
 H        -8.1699155115       -6.6311324563       -6.6341126517
 H       -11.4088310767       -7.0435758817       -3.9400974130
 H       -12.1473245313       -5.5351759529       -3.4783348584
 H       -11.6514553007       -6.5763032113       -1.4471390337
 H       -10.2303598911       -5.5529040673       -1.5215698261
 H        -7.4989361342       -6.4950436925       -2.3363848444
 H        -6.7000882850       -7.9882945391       -1.8513889835
 H        -4.7844301514       -6.7064991368       -0.7799391161
 H        -5.9234043002       -5.4194809009       -0.4575096278
 H        -3.2600902382       -1.4611607825       -1.8494516486
 H        -2.9097350045       -2.6374500578       -0.6939539582
 H        -5.6401805729       -1.2773551541       -0.8875297059
 H        -4.5086378874       -0.4762209441        0.1542612442
 H        -9.0390617404       -1.2857705025        1.7345111359
 H        -8.4164468751       -2.2346789641        0.4148682375
 H        -8.9332422729        0.6370476383       -0.1014995007
 H       -10.2936002968       -0.5278582034       -0.1127224305
 H        -8.0209759511        1.0532847718       -5.8446569461
 H        -8.2553002985        2.2678826666       -4.5025243431
 H       -10.7189082801        2.1302728910       -4.9954770973
 H       -10.4923006820        0.4619795247       -5.4365806154
 H       -12.5899256455        0.7233284116      -10.2368934890
 H       -12.1794610783       -1.0080488060      -10.2265462348
 H       -10.8985316931        0.2380699703      -10.5392241176
 H       -12.6287067098        3.0603248678       -6.9614848204
 H       -12.7269721741        1.3944968662       -6.2740739949
 H       -13.4079915687        1.7434287775       -7.7801141502
 H       -10.2742379898        2.6436256678       -9.5586523050
 H       -11.4179230217        3.6782030663       -8.6973377509
 H       -12.0495600254        2.4948264129       -9.7477530134
 H       -11.3642112293       -0.8062152504       -4.0637856441
 H       -11.2654399291       -1.2933357076       -2.3816756683
 H       -10.3244155653       -2.1115300498       -3.5144852341
 H       -10.6005969940        1.7613157938       -3.1658940216
 H        -9.2041417088        1.9345225006       -2.2182664984
 H       -10.6583341947        1.1394574852       -1.5487973851
 H        -7.5600814913       -2.0262053591        3.4928962936
 H        -6.0623019869       -2.9284994196        3.7003545003
 H        -7.1570762432       -3.3252940765        2.4523995724
 H        -3.9981265086       -1.2573684991        2.5779877621
 H        -5.1867991911       -0.6581549939        3.7530436567
 H        -4.8974595134        0.2955550385        2.2974880464
 H        -2.5347302764       -5.9796996001       -1.5491740669
 H        -3.2482647335       -4.7880357560       -0.4252537936
 H        -2.0628210298       -4.2213181445       -1.5357284796
 H        -2.8631898215       -5.3849771948       -4.1608570888
 H        -2.5295817145       -3.6479554656       -3.9805239628
 H        -4.1172519982       -4.1517508611       -4.5182554361
 H       -10.8869521606       -6.9114638942        0.3427288184
 H        -9.9417788909       -7.6361609257        1.4180702412
 H       -11.1906065527       -8.5817918067        0.6461999860
 H        -8.1263107556       -9.7148151495       -1.2898869115
 H        -9.7512616739      -10.1510527458       -0.8189220305
 H        -8.5209615553       -9.7988879518        0.4590149837
 H       -11.3173099360       -3.6594856000       -7.3166692935
 H       -11.0446471773       -3.0168886656       -5.6908191785
 H       -12.3857091823       -4.1322172593       -6.0751269392
 H       -11.9125940000       -6.6861965931       -6.2643897782
 H       -10.4412952998       -7.3158105729       -6.2994904619
 H       -10.8068426402       -6.3280843642       -7.7716284835
 H        -6.2110004443       -1.0152342648       -7.9236670919
 H        -4.6629470425       -1.1536164436       -8.6306989597
 H        -4.8914770861       -1.8760723397       -6.9879227657
 H        -7.1213644590       -3.5935730917      -10.0569808119
 H        -6.6091365786       -1.9400258603      -10.0240615291
 H        -7.7745436248       -2.5494308856       -8.7902607444
 H        -0.2482175683       -5.1922745943      -11.9653834822
 H         0.1098458469       -4.3089155932      -13.3901974312
 H        -1.5713735902       -4.4985949321      -12.4873658096
 H         1.4564928764       -1.7852098256      -11.0838330576
 H         2.0245809675       -3.1586804296      -11.9114697974
 H         1.4523638626       -3.3895171217      -10.2446211807
 H         1.4653338311        2.8395276285      -15.5844602512
 H        -0.2144935972        3.2357348218      -15.7918375230
 H         0.8071497479        3.3409740247      -17.2537012783
 H        -1.0025977763       -0.0179198946      -17.2413992154
 H        -0.7914123659        1.4625883180      -18.2635212923
 H        -1.6131642984        1.6163604084      -16.7557976496
 H         3.0585804348       -2.6653618143      -21.0430032080
 H         2.4965746123       -1.0718648297      -20.7101679080
 H         2.4798166841       -2.1778310370      -19.3546052739
 H         5.7049656349       -3.0671391623      -19.5266358525
 H         4.6431569294       -2.9490084569      -18.2304330549
 H         5.9867071345       -1.6983449530      -18.3471941625
 H         9.4567547895        1.7258894925      -23.3784303665
 H        10.3970872840        2.0598722078      -21.9363681957
 H         9.9857632282        3.3743125079      -23.0870478626
 H         9.0841413882        4.5665184436      -20.8035024584
 H         9.0826077979        3.0717049846      -19.8944075718
 H         7.5328069763        3.8644836254      -19.9855051837
 H         2.2377452643        3.8887669280      -26.5783734993
 H         1.9542660179        3.3111032834      -24.8992291766
 H         3.1629763334        2.7185004593      -25.8764570610
 H         3.8008611975        5.8531295499      -27.0003441845
 H         5.0819285729        4.6476576660      -26.4624602586
 H         5.0605687679        6.1113613690      -25.8173860828
 Na       -7.4258404608       -3.2443493254       -4.0111060996
 Na        3.9420759119        1.4592854355      -21.8455165841
