232

 C         1.0858618453        6.2019151443      -25.3318742252
 C         2.6910319799        5.9266513359      -24.8345951663
 O         3.1917129933        6.7926775382      -24.0873163325
 C         3.5600453675        4.7898504958      -25.4122049393
 C         4.3364394216        4.2892837899      -24.0869360234
 O         4.0587089033        3.3097394570      -23.4582035883
 C         5.3313490427        5.2881274399      -23.4772622015
 C         6.2509057640        4.6963146506      -22.4046631756
 C         7.3724576206        3.7333886272      -22.8821998211
 O         7.5995613566        3.5540836464      -24.0945804076
 C         8.1684863028        2.8133386501      -21.7855898635
 C         7.2003007617        1.6538546202      -21.3525633152
 O         6.1035307959        1.9728894177      -20.8750482039
 C         7.4882465520        0.0507180803      -21.7156023224
 C         6.6579304513       -0.9676081771      -20.7809242480
 C         5.2136186496       -0.7909494919      -20.9506878842
 O         4.7985512924       -0.5345406738      -22.1137550712
 C         4.3065324873       -1.0502344721      -19.7124481275
 C         4.0019997616        0.2559345200      -18.9638985087
 O         3.6736389063        1.3315348373      -19.5275262597
 C         3.9166068764        0.3065714497      -17.4609965664
 C         2.8250871035        1.1788995491      -16.8950182472
 C         1.4286952999        0.5628976890      -17.0751381613
 O         1.1803346718       -0.4752636054      -17.6507157270
 C         0.3038752862        1.3126639784      -16.3608123159
 C         0.4340449766        0.5630656224      -14.8794336159
 O         1.4217889968        0.6876943203      -14.1865634745
 C        -0.7096924180       -0.4756172225      -14.5033009902
 C        -0.1078780876       -1.5782773068      -13.6263226294
 C        -0.7610425791       -1.7742006051      -12.2930627369
 O        -1.7181973036       -1.0904558071      -11.9845248897
 C        -0.2989649661       -3.1020301266      -11.5382003494
 C        -1.0732741720       -3.3212209646      -10.1732721605
 O        -0.4669240944       -3.7755113885       -9.2019792244
 C        -2.5614757745       -2.9339009987      -10.0566283616
 C        -3.2663014952       -3.6462003353       -8.8584939121
 C        -4.7954951150       -3.8817020010       -9.1141264094
 O        -5.0879911200       -4.8166386548       -9.8314835696
 C        -5.8524400446       -2.8374278142       -8.4645458932
 C        -6.2383370853       -3.7028466407       -7.2282464267
 O        -6.2865162042       -3.1166218524       -6.0954306926
 C        -6.4322870168       -5.2014772620       -7.3451855509
 C        -7.7021897676       -5.6799817868       -6.5779871783
 C        -8.9661452497       -4.7847630548       -6.5955802623
 O        -9.0246278096       -3.7395399176       -7.2478301716
 C       -10.2637494014       -5.2602240500       -5.8791121795
 C       -10.0668280690       -5.3077215207       -4.3240431654
 O        -9.3036031497       -4.5311022334       -3.7266895071
 C       -10.9994371803       -6.2519721641       -3.4756285094
 C       -10.6165146116       -6.3699116028       -2.0212164510
 C        -9.7663019796       -7.6468498853       -1.7369570027
 O        -9.4991522489       -8.3599916936       -2.7256798333
 C        -9.1735387018       -7.9082366944       -0.2818693272
 C        -8.0085094992       -6.8400098221       -0.3137573812
 O        -7.9157616289       -5.9628583007        0.5230702781
 C        -7.0759971693       -6.8973125316       -1.5545387920
 C        -5.6817219187       -6.3260791143       -1.3933252269
 C        -5.3479187183       -5.4145196689       -2.5754177929
 O        -6.1459360713       -5.3512585653       -3.5458596593
 C        -4.1079805153       -4.6017130677       -2.4431568170
 C        -4.5097408189       -3.0212119485       -2.4523939896
 O        -5.3649595395       -2.5721447526       -3.2144725258
 C        -3.7365113906       -2.0789237353       -1.5286828596
 C        -4.6254351552       -1.3261516512       -0.5157048968
 C        -5.2367513333       -2.3926142190        0.5762203149
 O        -5.1800206521       -3.5999259572        0.3466909791
 C        -5.8489602547       -1.7581113665        1.8861735674
 C        -6.8815610856       -0.8505601761        1.2086531906
 O        -6.5922714751        0.2967665301        0.8004929057
 C        -8.3963985668       -1.3752931324        0.9311750198
 C        -9.0748430262       -0.4744554393       -0.2460943730
 C        -8.7259106305       -1.0318897049       -1.6182061578
 O        -8.0901667517       -2.1004046470       -1.7544492796
 C        -9.4087066084       -0.1946700883       -2.7812722497
 C        -8.4015195563        0.0718583996       -3.9984812609
 O        -7.4722824381       -0.6498174289       -4.2479489575
 C        -8.6031047290        1.2840473659       -5.0142779884
 C       -10.0076711757        1.4074678964       -5.5401335280
 C       -10.1122288117        1.5577846430       -7.0331408107
 O        -9.1251629352        1.6761464344       -7.7295534026
 C       -11.5157643782        1.6481759026       -7.7328755084
 C       -11.6637100998        0.1299568040       -8.3737809250
 O       -12.0417860827       -0.7487175408       -7.6139593814
 C       -11.5559370308       -0.2383209965       -9.8157380828
 C       -12.6510146117        1.9330218076       -6.8371433102
 C       -11.6004302561        2.7493975057       -8.8887270876
 C       -10.4889283426       -1.1422389838       -3.3987823470
 C        -9.9765316364        1.1493909474       -2.2282880046
 C        -6.5585463858       -2.8854503636        2.7763133922
 C        -4.7770608134       -0.8229526695        2.6493736810
 C        -3.1627501428       -5.0807124553       -1.3219529781
 C        -3.4693856560       -4.7067547323       -3.8294345800
 C       -10.1289329946       -7.6067972801        0.8115955890
 C        -8.7010952339       -9.3899837580       -0.3387765704
 C       -11.3607800487       -4.2563020321       -6.1911570455
 C       -10.7514572243       -6.5326689310       -6.5832521910
 C        -5.0905817450       -1.6435425609       -7.9041891027
 C        -6.9973335774       -2.4326143057       -9.4208672520
 C        -0.7383577541       -4.3713949365      -12.3240636152
 C         1.1914988526       -3.0130271343      -11.2655143519
 C         0.5185288569        2.8403880487      -16.3251224843
 C        -1.0983634789        0.9692024561      -17.0139399589
 C         3.0068233140       -1.5425167047      -20.2438651298
 C         4.9353137462       -2.1347397148      -18.8641869465
 C         9.4958190440        2.1358806671      -22.4342759714
 C         8.5275495072        3.6834955993      -20.5947592204
 C         2.8502581944        3.6800970747      -26.1009976075
 C         4.4375936844        5.5256691647      -26.4500362824
 H         0.5499450449        6.3689540708      -24.3928362613
 H         0.6389489888        5.3141875781      -25.8283890234
 H         0.9518107340        7.0606204000      -25.9298389489
 H         4.7066128849        6.0839491544      -22.9762783897
 H         5.8886856662        5.6769677969      -24.3514555901
 H         5.6879221648        4.2297882532      -21.6438169668
 H         6.8557360664        5.4882231863      -21.8639377411
 H         8.5647975492        0.0495839543      -21.6668719605
 H         7.0647871711       -0.1047541138      -22.7561164478
 H         7.0047629007       -0.7875543053      -19.7224538032
 H         6.9374289850       -2.0471588359      -21.0038386815
 H         4.8563795820        0.6616807574      -17.1419839147
 H         3.7776838029       -0.7104036706      -17.1127589888
 H         2.9136769184        2.1766218331      -17.3038821298
 H         3.0496075216        1.2275344192      -15.8354388263
 H        -1.3183225009       -0.9004860794      -15.3041104038
 H        -1.3374765831        0.1383215931      -13.7999945660
 H         0.9442767185       -1.3128431976      -13.4541697816
 H        -0.0799610165       -2.4906526612      -14.2677928503
 H        -3.0560757990       -3.1384824003      -11.0122146745
 H        -2.6552589795       -1.8868512921       -9.8351306832
 H        -3.0243578652       -3.0211216386       -8.0213675512
 H        -2.8908035314       -4.6303175793       -8.7381572490
 H        -5.5827218596       -5.8610105503       -7.0622887218
 H        -6.5760561050       -5.3679535452       -8.4427329808
 H        -7.3958961103       -5.6617658650       -5.5951943689
 H        -8.0078249147       -6.5737977382       -6.9606468988
 H       -10.9655099725       -7.2013771960       -3.9721850762
 H       -12.0574267064       -5.8945135506       -3.5134965853
 H       -11.4619259585       -6.5798077607       -1.3322768708
 H       -10.1628707887       -5.4215214303       -1.5805173882
 H        -7.5290181071       -6.4103097195       -2.4108895893
 H        -6.8440867620       -7.9666648363       -1.8477254691
 H        -4.9165596999       -7.1612584891       -1.2248665335
 H        -5.7571037685       -5.7105614010       -0.4392699024
 H        -3.2580319707       -1.3291521512       -2.1885252023
 H        -2.7953805310       -2.5975034535       -1.0439579165
 H        -5.4395781721       -0.9367670262       -1.0627835265
 H        -4.2746927104       -0.4578501308       -0.0182014197
 H        -9.0896205077       -1.2105919350        1.7565999761
 H        -8.4997449383       -2.4457292750        0.5898011411
 H        -8.5776429831        0.5023122034       -0.1161375929
 H       -10.1725042230       -0.4894595845       -0.0119355349
 H        -8.0416400066        1.0559640460       -5.9357108847
 H        -8.3217499820        2.1995582561       -4.5781402975
 H       -10.6800396274        2.0063817080       -5.0507775172
 H       -10.3720695098        0.4618766995       -5.1629542502
 H       -12.0255644445        0.4919608357      -10.4856009571
 H       -12.1055991991       -1.2215706416       -9.9650893847
 H       -10.5464864211       -0.2971259269      -10.0718624706
 H       -12.4391608173        1.9629409652       -5.7591072520
 H       -13.4198547297        1.0992086712       -6.8832444113
 H       -13.1643786597        2.8873899287       -7.0588028386
 H       -11.1349858813        2.4865582670       -9.8683136360
 H       -11.0725985737        3.6412123817       -8.5648017595
 H       -12.5982560037        2.9788154206       -9.2910178663
 H       -11.2455501468       -0.6414774793       -4.0376508449
 H       -11.1610126803       -1.6454326859       -2.6163890702
 H        -9.8590480750       -1.9500952833       -3.8334524960
 H       -10.4991949830        1.7936488323       -2.9509970041
 H        -9.1246463297        1.7115875992       -1.7685061747
 H       -10.7661037051        0.9678997760       -1.5629879656
 H        -6.7829326920       -2.6067665904        3.8345225038
 H        -5.9446397532       -3.8675684880        2.7946522939
 H        -7.4816897727       -3.1356812744        2.3035806172
 H        -4.0131387381       -1.5347588350        3.0811438480
 H        -5.3014128271       -0.2531273050        3.3737329060
 H        -4.2911783583       -0.1225884608        1.9952685828
 H        -3.1548911876       -6.2008906635       -1.4803161495
 H        -3.4819183665       -4.8586483073       -0.2832587706
 H        -2.2132542206       -4.7789119844       -1.5912241068
 H        -3.0743608339       -5.7114252956       -4.0325407186
 H        -2.6066850809       -3.9718326624       -3.8056536985
 H        -4.2038510034       -4.3588382842       -4.4907946454
 H       -10.4729380913       -6.5759501621        0.6334257602
 H        -9.7611571943       -7.6283828963        1.8409914468
 H       -11.1744991685       -8.1117049383        0.7537003474
 H        -8.0059759871       -9.5230915198       -1.1647608199
 H        -9.5124768856      -10.0866244250       -0.6263117255
 H        -8.3064743491       -9.7380556153        0.6233895195
 H       -11.5606771877       -4.1216416627       -7.2442729552
 H       -11.2758356358       -3.2529063226       -5.7772726323
 H       -12.2935564884       -4.7186686216       -5.8527317666
 H       -11.7476983014       -6.8283424422       -6.1841682174
 H       -10.2635214724       -7.4131012835       -6.3828035834
 H       -10.8149610301       -6.2688663213       -7.5936766357
 H        -5.7313263461       -0.9891790184       -7.2542726300
 H        -4.7365309955       -1.1410278999       -8.8486922924
 H        -4.3019779511       -1.9074784423       -7.2027805540
 H        -7.7498145256       -3.2156268933       -9.6444020145
 H        -6.4442061750       -2.0617048602      -10.3443077582
 H        -7.4022323136       -1.5191794126       -8.9751184723
 H        -0.5397487765       -5.2868300821      -11.8052729563
 H        -0.1230154102       -4.5213553276      -13.2320495625
 H        -1.7294056795       -4.4618507737      -12.4826759382
 H         1.3425366902       -2.6349841645      -10.2150362488
 H         1.7367368624       -2.3191888827      -11.9879984302
 H         1.6435844412       -3.9721784446      -11.3702003947
 H         1.3899063923        2.9207155602      -15.7431451902
 H        -0.3427630663        3.2699732400      -15.8672213609
 H         0.6728771618        3.1332676211      -17.3863480568
 H        -0.9297364200        0.0043461945      -17.5037244386
 H        -1.2896484038        1.6286723402      -17.8810252897
 H        -1.9113317147        1.0624289218      -16.3240431147
 H         3.0136226624       -2.5412813831      -20.6797588667
 H         2.7465983440       -0.9384921224      -21.0559084627
 H         2.1966984922       -1.6056787955      -19.5457146908
 H         4.9665702022       -3.0650004862      -19.4024485025
 H         4.4135439121       -2.4440751960      -17.9831938292
 H         5.8875035033       -1.8280544639      -18.4370391214
 H         9.1541782803        1.7534540014      -23.3503188870
 H         9.9411725733        1.2653735609      -21.8228329864
 H        10.3777986770        2.8400323672      -22.5525091873
 H         8.7515264174        4.5935485182      -21.0742348605
 H         9.2893241503        3.3250262366      -19.9209418174
 H         7.5705913900        3.9183755247      -20.0090334183
 H         2.1353989898        3.8245695323      -26.9095850872
 H         2.3397444945        3.0351449759      -25.3963930090
 H         3.5906974159        2.9906826803      -26.5367461026
 H         3.7357300543        5.5052176917      -27.3393556480
 H         5.4180394834        5.0079190196      -26.6276818955
 H         4.6689671593        6.5622322072      -26.3647391529
 Na       -7.3826168783       -3.0615442412       -3.9178256856
 Na        3.7869601820        1.7716760011      -21.7763877778
