232

 C         1.2483175341        6.1383548855      -25.6061292888
 C         2.5577377489        6.1505266031      -25.0167550846
 O         3.0625596937        6.9072656703      -24.2345699816
 C         3.6739119749        4.9522671918      -25.4662396076
 C         4.3599738325        4.4130520892      -24.2388454816
 O         3.8916339319        3.3766125342      -23.6934312644
 C         5.4765877395        5.1887463647      -23.6564618960
 C         6.2375538665        4.6680023162      -22.4299135302
 C         7.3977883991        3.6200423852      -22.9239449709
 O         7.5969187322        3.4034844785      -24.0756622597
 C         8.0183496820        2.7152206583      -21.8910614549
 C         7.0688937732        1.6213235102      -21.3823136631
 O         6.1008926177        1.8809149452      -20.7169406025
 C         7.4668560068        0.1364564089      -21.6386398247
 C         6.7178902814       -0.7389001019      -20.6397096616
 C         5.2430870331       -0.6262746813      -20.8327626137
 O         4.8371842567       -0.1174425616      -21.8523194970
 C         4.1604660988       -1.0521153849      -19.7494706453
 C         3.8504475125        0.3201060319      -18.9649689901
 O         3.6719829213        1.3499087160      -19.5373112941
 C         3.8352964310        0.3832152592      -17.5038262628
 C         2.6871412223        1.3527051303      -17.0196245606
 C         1.3608158660        0.6248929872      -17.1110889695
 O         1.2595818428       -0.4590153138      -17.6875271770
 C         0.1923143210        1.2270444175      -16.3066198164
 C         0.3141358255        0.4577808815      -14.8725632198
 O         1.2790717705        0.7904070494      -14.2120982094
 C        -0.8337450121       -0.5513843469      -14.4363112849
 C        -0.0941464218       -1.7181331801      -13.6720511212
 C        -0.6990237781       -1.8856059519      -12.2664661305
 O        -1.6102583144       -1.1773808208      -11.9145260666
 C        -0.2661512289       -3.2196131965      -11.5050993785
 C        -1.0627703456       -3.2991241666      -10.1271135188
 O        -0.4662957928       -3.5718796959       -9.0845325769
 C        -2.5542834919       -3.1274905312      -10.1609520077
 C        -3.1761684580       -3.7336555103       -8.8716038522
 C        -4.6545118472       -3.7788169925       -9.0071529590
 O        -5.1451140633       -4.5514165785       -9.8265127299
 C        -5.6855456974       -2.8223846246       -8.2836054595
 C        -6.2662726917       -3.5914191805       -7.0477381081
 O        -6.4569951771       -2.9022087466       -6.0669999678
 C        -6.4912100302       -5.0637847674       -7.2370819673
 C        -7.7428349802       -5.6597500673       -6.5875135797
 C        -9.0064767873       -4.8008551377       -6.6846651641
 O        -8.9944521255       -3.7173001772       -7.1614011223
 C       -10.2923929259       -5.2960462521       -5.8935790517
 C       -10.0116261068       -5.3295962459       -4.3470802429
 O        -9.1365321090       -4.7131633635       -3.8295573995
 C       -10.9985413519       -6.2407752087       -3.5635175835
 C       -10.6759726184       -6.4484827887       -2.0488331119
 C        -9.9065076231       -7.7756536787       -1.6878912400
 O        -9.6607585574       -8.5740659202       -2.5167720080
 C        -9.2485216370       -7.8090574612       -0.2152240664
 C        -8.0994768179       -6.7471826536       -0.5599338160
 O        -8.0473513853       -5.7740349761        0.1912606514
 C        -7.0958716356       -7.0185799019       -1.6422707250
 C        -5.7511012793       -6.1562844095       -1.3544988819
 C        -5.4407305511       -5.2910915102       -2.5255787147
 O        -6.2601513374       -5.0252492880       -3.3964533652
 C        -4.0099151355       -4.6527209451       -2.5936185496
 C        -4.2563358421       -3.0318689168       -2.5260038825
 O        -5.1821792760       -2.5939630538       -3.1884842002
 C        -3.4304206710       -2.0973002233       -1.5762584140
 C        -4.4215805930       -1.3957929876       -0.6111347828
 C        -5.0534425806       -2.3865511472        0.4027756683
 O        -5.0677639566       -3.5595477328        0.1027767966
 C        -5.7681971596       -1.8780243967        1.7668503253
 C        -6.9331878441       -0.8285112059        1.1822680913
 O        -6.6699124507        0.3316094593        1.0581090804
 C        -8.2836048181       -1.4406125619        0.9412330107
 C        -9.0380868621       -0.6119665824       -0.1591796147
 C        -8.6283258215       -1.0425943764       -1.5880761888
 O        -7.9461966157       -1.9833277713       -1.8242160956
 C        -9.3717905013       -0.2833469826       -2.7694915300
 C        -8.4596308899       -0.0625986433       -4.0452249907
 O        -7.5008813646       -0.7751836796       -4.1910378173
 C        -8.6619497403        1.1732578612       -4.9102628387
 C       -10.1267416644        1.3975989643       -5.6115825505
 C       -10.1906600308        1.6035698858       -7.1153119995
 O        -9.2383853014        1.7148007473       -7.8467639429
 C       -11.6371314252        1.6440923272       -7.7363935360
 C       -11.7883221924        0.1599946989       -8.2041624562
 O       -12.2212202721       -0.6763411389       -7.4356992559
 C       -11.2928277272       -0.1373032113       -9.6084818646
 C       -12.7835684456        1.8857140251       -6.7595813083
 C       -11.7592695314        2.5560853662       -8.9419851249
 C       -10.5051485500       -1.2576994428       -3.2569486899
 C       -10.1193063416        1.1192815540       -2.3461334051
 C        -6.1760651656       -3.1359790333        2.5102600020
 C        -4.7153634444       -1.0077096928        2.6857850141
 C        -3.0296365513       -5.1150086234       -1.5041812255
 C        -3.3363411333       -4.9322806139       -4.0159455846
 C       -10.2261880359       -7.3877535304        0.9164905818
 C        -8.5375514409       -9.1894156922        0.1221241035
 C       -11.5165998067       -4.2776771291       -5.9628945707
 C       -10.5679951509       -6.7480325467       -6.3622168510
 C        -5.0535899958       -1.4491290202       -7.9009273957
 C        -6.8612356845       -2.7465062486       -9.3707444770
 C        -0.7606644324       -4.4195955348      -12.3017531032
 C         1.2381405164       -3.2807655676      -11.2170281085
 C         0.3241421557        2.7683545995      -16.0012282933
 C        -1.2175029921        1.0060071612      -16.9971849931
 C         2.8888955666       -1.4525541831      -20.4204254611
 C         4.6864441606       -2.1434186810      -18.7485993518
 C         9.3749021087        2.2390790384      -22.5246520814
 C         8.4580281727        3.4357745899      -20.5264507946
 C         2.9218103598        3.7556810076      -26.0640415126
 C         4.6563882541        5.4852412534      -26.5471064535
 H         0.5299358808        6.6501501241      -24.9681359337
 H         0.9532786497        5.1965574537      -25.9619596814
 H         1.4274351818        6.8083442371      -26.4926090794
 H         4.9182021698        6.0726856428      -23.4321721661
 H         6.2398565484        5.3532343318      -24.4058696314
 H         5.6306588100        4.0926303614      -21.6570840836
 H         6.6242271458        5.4845831143      -21.8611738092
 H         8.5536885776        0.1032323390      -21.4632125108
 H         7.2249105106       -0.1472597167      -22.6036012619
 H         7.0184387429       -0.4622009515      -19.6912676749
 H         7.1973517295       -1.7141534229      -20.7830635325
 H         4.8652464721        0.7048311604      -17.1888942452
 H         3.6754171453       -0.6110004825      -17.0999437373
 H         2.5764313335        2.3332062736      -17.4961978235
 H         2.9606139918        1.5256828801      -15.9595143693
 H        -1.3798258561       -0.8516824166      -15.3457036746
 H        -1.4930358842       -0.2156932131      -13.6328958833
 H         0.9611705770       -1.5132231147      -13.5849736194
 H        -0.1416014769       -2.6154193303      -14.2391137746
 H        -3.0281934303       -3.5636308437      -11.0474281087
 H        -2.7697822084       -2.0356393125      -10.1458725983
 H        -2.8533010114       -3.1411268322       -7.9741764784
 H        -2.9213949063       -4.8385466677       -8.9123328393
 H        -5.6868212353       -5.6020415710       -6.7247907081
 H        -6.3571735124       -5.3852552908       -8.2469231477
 H        -7.5309789012       -5.7853334499       -5.4643624492
 H        -7.9706386423       -6.6613899756       -7.1491104147
 H       -11.0996709185       -7.1778196194       -4.1328964483
 H       -11.9634560970       -5.7923016490       -3.5544549156
 H       -11.5677860527       -6.5758812151       -1.4055039966
 H       -10.2614422901       -5.5472125875       -1.6349090097
 H        -7.5092966569       -6.6563187968       -2.6390784008
 H        -6.8470884181       -8.0665815783       -1.7556406455
 H        -4.8758033650       -6.7281000450       -1.1126098063
 H        -5.8951383358       -5.4483067710       -0.5237340186
 H        -2.9200545460       -1.3073993022       -2.0961016374
 H        -2.7401644484       -2.5926857881       -0.9813015940
 H        -5.2195984619       -0.7527362198       -1.0325246926
 H        -3.8656149427       -0.6071810202       -0.0349971379
 H        -8.8619265212       -1.5258154648        1.8561072238
 H        -8.1522581563       -2.3758766613        0.4636339513
 H        -8.6786626284        0.4072421882       -0.0146811951
 H       -10.0971445864       -0.7281936387       -0.0246333989
 H        -8.0024848286        1.0103806676       -5.7528037695
 H        -8.4524613260        2.1447730920       -4.3805299532
 H       -10.7354148061        2.2506763146       -5.0827204887
 H       -10.7551225304        0.5473709650       -5.2415092098
 H       -11.9468002665        0.2877212417      -10.3800210244
 H       -11.3653857672       -1.1704184068       -9.7374199571
 H       -10.2566928091        0.3178934844       -9.8297487208
 H       -12.8458483759        1.1462035510       -5.9197447807
 H       -13.7296340560        1.6580260627       -7.1728015312
 H       -12.7757466828        2.8955106673       -6.4243777990
 H       -10.9550216513        2.7474569456       -9.6091946960
 H       -12.1139636611        3.5713601524       -8.6618613535
 H       -12.4503077696        2.0848974697       -9.6358587233
 H       -11.3333639773       -0.6981250269       -3.6488224090
 H       -10.9415996071       -1.7414291804       -2.4258765868
 H       -10.0856241494       -2.0189179901       -3.9067585052
 H       -10.6648970072        1.5102463065       -3.1874348219
 H        -9.4821389403        1.8273301149       -1.9762014958
 H       -10.9468264788        0.9532101621       -1.6688315958
 H        -6.6883347004       -2.9291583231        3.4227999027
 H        -5.3802080411       -3.7422759031        2.7819280438
 H        -6.8713292566       -3.6685409200        1.8186947643
 H        -3.9224400807       -1.5289469390        3.1169491554
 H        -5.2912049881       -0.4180395084        3.4129814122
 H        -4.2965601077       -0.2347081864        2.0329699405
 H        -2.7608676439       -6.1241779195       -1.6774914988
 H        -3.5542070835       -5.0108784072       -0.5913551645
 H        -2.0233557682       -4.5745608706       -1.6318387564
 H        -3.2232685458       -6.0006489292       -3.9249285645
 H        -2.4093557977       -4.4778378540       -4.0598943218
 H        -4.0261282277       -4.7231812609       -4.8799970962
 H       -10.2672869113       -6.3348113033        1.1754599502
 H        -9.8456718914       -7.8806688121        1.8048964563
 H       -11.2183482028       -7.6194095126        0.8536494800
 H        -8.0971882162       -9.6822791016       -0.7705511266
 H        -9.1661559540       -9.9619772395        0.5439990030
 H        -7.8327595597       -8.9575631858        0.9166037288
 H       -11.9543329815       -4.2972120787       -6.9691467025
 H       -11.2063351240       -3.2270452591       -5.9007524549
 H       -12.3669047559       -4.4333181706       -5.2874082308
 H       -11.2669701456       -7.3532226545       -5.7823022949
 H        -9.6048088657       -7.3497165754       -6.4166234544
 H       -11.0810763695       -6.6635077394       -7.3731802658
 H        -5.7944306858       -0.8676376420       -7.3964187597
 H        -4.6405791251       -1.0301012161       -8.7878616576
 H        -4.3470040765       -1.5740818415       -7.0763802198
 H        -7.1559502374       -3.7637247430       -9.5066822755
 H        -6.4537729688       -2.3077440470      -10.2618408412
 H        -7.6847510239       -2.1035333781       -9.0302133766
 H        -0.8389641488       -5.3818951972      -11.6766025260
 H        -0.1018544702       -4.7025139008      -13.1258837743
 H        -1.8302800671       -4.3076158181      -12.7692931475
 H         1.5722916771       -2.7534394009      -10.3268232358
 H         1.7400171022       -2.9530352408      -12.1440460779
 H         1.5193672201       -4.3512086726      -11.1557257701
 H         1.2048053745        2.8734356374      -15.2586220696
 H        -0.5888025076        3.0720696249      -15.4952697498
 H         0.5452018560        3.2398267487      -16.8931421385
 H        -1.3948696831       -0.0494346570      -17.2156355936
 H        -1.2625257897        1.4615221545      -17.9909716403
 H        -1.9454046921        1.4851361778      -16.2985895007
 H         2.9021282078       -2.3782711941      -20.9667553533
 H         2.5372449379       -0.6756870940      -21.2118076749
 H         2.0638335997       -1.6026220845      -19.7365203503
 H         5.3257203038       -2.9245939176      -19.2460239338
 H         3.9561466003       -2.7656911489      -18.2160975095
 H         5.2959984868       -1.8379185961      -17.8614832355
 H         9.1336746797        1.4069198779      -23.2130362824
 H        10.0424937665        1.8881919540      -21.7640803657
 H         9.9145033694        3.0213856739      -22.9989949999
 H         9.3089445771        4.2089670082      -20.4437178223
 H         8.4916062420        2.5790782097      -19.8031110855
 H         7.5385081910        3.9383124996      -20.2902302084
 H         2.2548972269        4.1048522003      -26.8477317565
 H         2.1639051392        3.2821934896      -25.4470473716
 H         3.4825557914        2.9709252146      -26.5376376613
 H         4.2002895760        5.8245658235      -27.4145462651
 H         5.3970129869        4.6824635532      -26.7735709886
 H         5.2342129338        6.3605379295      -26.1556812795
 Na       -7.3590454032       -3.1515785759       -4.0384274345
 Na        4.0787262482        1.9148210832      -21.8985818070
