232

 C         1.2821771451        6.1395100590      -25.8104688477
 C         2.7490980870        6.1945648131      -25.0874069662
 O         2.9963247943        7.0169683766      -24.2580700621
 C         3.6740418329        4.9970727966      -25.5179018414
 C         4.2997278443        4.4380632132      -24.2155630621
 O         3.9103969542        3.3679000104      -23.6825271451
 C         5.5325423971        5.2745813924      -23.7897445181
 C         6.1647679474        4.5498012050      -22.6026422724
 C         7.2367083113        3.5607155382      -22.9428157652
 O         7.5332247380        3.4005845383      -24.1333764603
 C         8.1186278908        2.7107586558      -21.7859129072
 C         7.1844970492        1.6154249173      -21.3859507758
 O         6.2539992034        1.9513378363      -20.6753678885
 C         7.5228528426        0.0258445808      -21.4885966836
 C         6.6371556425       -0.7979624430      -20.5195752550
 C         5.2102196591       -0.5782758470      -20.7522518988
 O         4.7711753659       -0.1416665821      -21.8918653659
 C         4.1041376828       -0.9941925961      -19.7345060779
 C         3.7910832221        0.4232465175      -18.9578840754
 O         3.5049621180        1.3667942820      -19.7078899636
 C         3.7830662620        0.4563582706      -17.3794363638
 C         2.6337074190        1.3525296304      -16.9127668961
 C         1.2979043554        0.6816215657      -17.1298428331
 O         1.2101952131       -0.3697890234      -17.7170592495
 C         0.0484639294        1.2789936026      -16.2525313777
 C         0.2640889778        0.4882683840      -14.9656858066
 O         1.1421374986        0.7698889943      -14.1654750773
 C        -0.6678254699       -0.5717836289      -14.4577322893
 C        -0.0583183075       -1.7385714382      -13.6272703195
 C        -0.6916008815       -1.9865478869      -12.3084733231
 O        -1.4896381295       -1.2194206612      -11.8041813584
 C        -0.2632365746       -3.3390439814      -11.5293618671
 C        -1.0595573577       -3.3207763345      -10.0970787639
 O        -0.3836169658       -3.3832486489       -9.0464420542
 C        -2.5334721060       -3.2068993650      -10.0612144467
 C        -3.1438893673       -3.7118941437       -8.7205335179
 C        -4.6948726725       -3.7562295662       -9.0025733370
 O        -5.1034691383       -4.5042258337       -9.8601685146
 C        -5.7357991311       -2.7946877943       -8.3243046721
 C        -6.2843394950       -3.5199541488       -7.0750193661
 O        -6.5552176134       -2.8090307549       -6.0225874372
 C        -6.4373979553       -5.0188056770       -7.1905171885
 C        -7.6414794212       -5.6663505634       -6.4345940568
 C        -9.0186754005       -4.7426665878       -6.4919337484
 O        -9.0661521535       -3.7064083331       -7.1441350439
 C       -10.2947439842       -5.3323551519       -5.8423121890
 C       -10.0424064296       -5.4690216106       -4.3104935338
 O        -9.1224136877       -4.8638345115       -3.7643816146
 C       -11.0462881288       -6.3385793961       -3.4973427477
 C       -10.6723307397       -6.4237348021       -2.0395192111
 C       -10.0374156381       -7.8290138004       -1.6948966355
 O        -9.8010375427       -8.7727700882       -2.4476827714
 C        -9.2632616643       -7.7669723202       -0.2008916034
 C        -8.0901443584       -6.6879989863       -0.4446711225
 O        -8.1772421570       -5.6001924281        0.1402637030
 C        -7.0272807842       -7.0305842632       -1.5016330322
 C        -5.6853809318       -6.1749869965       -1.3583711564
 C        -5.3047244251       -5.2359025656       -2.5074631913
 O        -6.1775799717       -4.9947269905       -3.3833291898
 C        -3.8959480919       -4.5869584437       -2.6371411923
 C        -4.1823821164       -2.9796882268       -2.5655736375
 O        -5.0718927594       -2.3682427321       -3.1786443316
 C        -3.3538078144       -2.1884296647       -1.5785570757
 C        -4.2063957572       -1.3781921797       -0.5731148878
 C        -4.9531035655       -2.3505673015        0.3521763919
 O        -5.0401607998       -3.5726394264        0.0467897877
 C        -5.6346997457       -1.8687942569        1.6387022324
 C        -6.7813765937       -0.9329368311        1.2715039338
 O        -6.7032174848        0.2820292613        1.2018499497
 C        -8.1889054224       -1.5490697901        0.8779530778
 C        -9.0112582783       -0.6955233182       -0.2461339657
 C        -8.6650113674       -1.0366132814       -1.6344275543
 O        -7.8665957271       -1.9492218169       -1.7985575643
 C        -9.4874687145       -0.3172631166       -2.8214781745
 C        -8.5488784603       -0.0254654422       -4.0329413570
 O        -7.6109767543       -0.7365345475       -4.2927581823
 C        -8.7260044820        1.2027857063       -5.0327069000
 C       -10.1751628482        1.3688925945       -5.6150812094
 C       -10.2442536701        1.6276607324       -7.0613366782
 O        -9.3688526926        1.7898088948       -7.8954114041
 C       -11.7883407747        1.6346204157       -7.7324154480
 C       -11.7777842872        0.0833917057       -8.1413766920
 O       -12.2948146978       -0.7906759178       -7.4195496032
 C       -11.0980850488       -0.2896150515       -9.4718556379
 C       -12.7849912660        1.9944711217       -6.6210803342
 C       -11.7250309443        2.6231392319       -8.8785071283
 C       -10.5954564467       -1.3348716510       -3.1324209254
 C       -10.1527814509        1.0052311305       -2.3614638114
 C        -6.1788074036       -3.1919148242        2.3040605790
 C        -4.6403076537       -1.0632240130        2.5063973899
 C        -2.9303162572       -5.2264630570       -1.6279943987
 C        -3.3369653350       -5.0213137510       -4.0480826209
 C       -10.1795222702       -7.2370026337        0.8580457852
 C        -8.6223887052       -9.0287378669        0.1864869930
 C       -11.5340236161       -4.4302917956       -6.0174314971
 C       -10.6954817136       -6.7166680385       -6.3922213899
 C        -4.9672905845       -1.5235833947       -8.0213905626
 C        -6.9574341552       -2.7215343345       -9.3107694415
 C        -0.6948106111       -4.5215210443      -12.3800220327
 C         1.2387208566       -3.3766180136      -11.2534067606
 C         0.2032039344        2.7003958861      -15.8407992028
 C        -1.2531153953        0.9982188796      -17.0624299831
 C         2.8556345448       -1.4594160870      -20.3849126737
 C         4.6113842805       -2.1390980088      -18.9322685736
 C         9.4209867929        2.2996616016      -22.5721341476
 C         8.5102555681        3.4663341396      -20.4371012274
 C         2.9030887020        3.7477896604      -26.2211486070
 C         4.7279175142        5.4959020157      -26.4550875306
 H         0.8243450636        7.0126375120      -25.2898633167
 H         0.7653568355        5.1943218085      -25.6499549596
 H         1.2988440671        6.3781646354      -26.8677775345
 H         5.2188823438        6.2799003978      -23.5811374243
 H         6.3063503601        5.1693132837      -24.5908906645
 H         5.4608334518        3.9652348970      -21.9905013262
 H         6.5824329274        5.2104281208      -21.8247794806
 H         8.6303197511       -0.1494945076      -21.3697265377
 H         7.1520534293       -0.1947958316      -22.5100207996
 H         6.8792731655       -0.4904035467      -19.5457976227
 H         7.0804606002       -1.8746945196      -20.5737127597
 H         4.7961973537        0.8808407892      -17.0190197546
 H         3.7181619250       -0.6199693722      -16.9945610308
 H         2.6008520517        2.3167122794      -17.4475624739
 H         2.8552155804        1.6162954087      -15.8399444798
 H        -1.2985105239       -0.8976072894      -15.2356654279
 H        -1.2531344229       -0.1281437905      -13.6454562109
 H         1.0743601578       -1.6306990509      -13.4838677297
 H        -0.1296672084       -2.6287327088      -14.2603475267
 H        -3.0497403226       -3.7243237715      -10.9213335247
 H        -2.7382646090       -2.1458540038      -10.1356482255
 H        -2.9181742553       -3.0096926398       -7.9237006270
 H        -2.8309209164       -4.7622438483       -8.5978551926
 H        -5.5159358086       -5.5814998969       -7.0525581028
 H        -6.5976931372       -5.2175623231       -8.2388247887
 H        -7.4816368039       -5.7728254439       -5.2875729635
 H        -7.8414735063       -6.6534360895       -6.9784546468
 H       -11.0426426638       -7.3428242035       -3.9798665437
 H       -12.1246413403       -5.9608888375       -3.5537285190
 H       -11.4493123544       -6.2603705361       -1.3364978477
 H        -9.9861349492       -5.6698927778       -1.7575027908
 H        -7.4840689490       -6.7901759759       -2.4539513613
 H        -6.6756353405       -8.1003679282       -1.5888961420
 H        -4.8603531759       -6.7966950070       -1.1847687096
 H        -5.7130740780       -5.5152817444       -0.5283728822
 H        -2.9552083240       -1.4166744048       -2.1812166226
 H        -2.5088181839       -2.7767679445       -1.0661608099
 H        -5.0411458809       -0.8765910237       -1.1351595178
 H        -3.7171874423       -0.4303786956       -0.1029743860
 H        -8.7941298680       -1.6274875307        1.7680386279
 H        -8.0950163184       -2.5103424822        0.3423956460
 H        -8.8424738002        0.3117149815       -0.0378860315
 H       -10.0638136713       -0.9703759100       -0.1964146130
 H        -8.0788240659        1.0220452206       -5.9217536354
 H        -8.5414866896        2.2189045166       -4.6172195825
 H       -10.7479353827        2.0807808646       -5.0089220433
 H       -10.7783384263        0.4563404857       -5.4238124407
 H       -11.9391235553       -0.1839706484      -10.2137739862
 H       -10.8007673415       -1.3582221466       -9.5499410501
 H       -10.3981751654        0.4596653216       -9.8138672594
 H       -13.2710229585        1.0954920058       -6.1973065351
 H       -13.6738492771        2.5029837725       -6.8764095025
 H       -12.2837664818        2.5857608070       -5.9347221379
 H       -10.7586698612        2.7476029168       -9.2490604382
 H       -12.0624589655        3.6232012530       -8.7075248743
 H       -12.1705044466        2.2348640486       -9.7791198273
 H       -11.3334978062       -0.9578133401       -3.7578000499
 H       -11.0824049569       -1.5958624787       -2.2341906318
 H       -10.1027550635       -2.1905590073       -3.5380358305
 H       -10.8670154665        1.3696452931       -3.1543938070
 H        -9.3910001699        1.7967625235       -2.1261996926
 H       -10.7967743956        0.8677241573       -1.5145543756
 H        -6.9343292709       -3.0734998401        3.0440194629
 H        -5.3670365394       -3.6319790223        2.8916812571
 H        -6.5309447627       -3.8217078022        1.5303566849
 H        -3.6558454435       -1.5997531638        2.7458591612
 H        -5.1898703573       -0.8474595330        3.4099602662
 H        -4.3854939980       -0.0801663967        2.0833013639
 H        -2.8961192926       -6.2870889080       -1.8925502919
 H        -3.2908034150       -5.0963271078       -0.6034794383
 H        -1.9461094967       -4.9051973057       -1.8903987754
 H        -3.4214778785       -6.1163197966       -4.0298467504
 H        -2.3312912084       -4.6369537196       -4.2190834043
 H        -4.0913011962       -4.6814073881       -4.7447894309
 H       -10.2459235259       -6.2047413120        1.0196444015
 H        -9.9384250903       -7.6668614140        1.7817719912
 H       -11.2322349516       -7.5136536366        0.7317708325
 H        -8.3561639365       -9.5720424589       -0.7307275033
 H        -9.1585052457       -9.7237941273        0.7877865613
 H        -7.7649771136       -8.7678230804        0.7886401864
 H       -11.9078505153       -4.4457524045       -7.0229417596
 H       -11.2085289279       -3.3885960060       -5.9761440565
 H       -12.3958785359       -4.5113774848       -5.3303408823
 H       -11.8584260039       -6.8939159924       -6.1835464871
 H       -10.1012678258       -7.5072247087       -5.9594153613
 H       -10.6625531768       -6.7144024139       -7.5090899052
 H        -5.6101231212       -0.9217211558       -7.4017319209
 H        -4.5479641415       -1.1110899659       -8.9100792998
 H        -4.2481139795       -1.7685918419       -7.3267285333
 H        -7.0155792540       -3.7257152762       -9.5199811551
 H        -6.7802420065       -2.0772667440      -10.1660451232
 H        -7.8559746084       -2.4061495664       -8.8428885078
 H        -0.8038805516       -5.5403120580      -11.8445554610
 H        -0.0800109629       -4.7414861080      -13.3096846326
 H        -1.6414769478       -4.3273128677      -12.8041175846
 H         1.5701707139       -2.5674892514      -10.6820477727
 H         1.7070574299       -3.4187108799      -12.2737993071
 H         1.4807444558       -4.2257841697      -10.7816746090
 H         1.0401641093        2.7156864059      -15.0925649620
 H        -0.7608375615        2.8921615422      -15.2637280085
 H         0.4199565837        3.3417447708      -16.7354364664
 H        -1.2748069564       -0.0685111388      -17.2755277937
 H        -1.2072289615        1.4574365584      -18.0465145845
 H        -2.0910960257        1.3372651006      -16.4924955606
 H         2.9740836737       -2.3066751708      -21.0888364952
 H         2.5434647594       -0.6202739002      -21.0603142967
 H         2.0018833522       -1.7690337797      -19.8103030347
 H         5.1601421683       -2.9213539543      -19.4835325776
 H         3.8497684587       -2.6413228987      -18.3966460841
 H         5.2750935702       -1.9514699817      -18.0411367410
 H         9.0936445445        1.5694867401      -23.1542992169
 H        10.2731540793        1.9510087672      -21.9566179462
 H         9.8203213635        3.0695507384      -23.1726966267
 H         9.2981453126        4.1785882433      -20.4474618315
 H         8.7190475166        2.6259375130      -19.7909195462
 H         7.5666900480        3.9624170444      -20.0638022183
 H         2.4583719354        3.7398487198      -27.1958995699
 H         2.0184629583        3.4896742212      -25.6887607680
 H         3.5392714006        2.8321447456      -26.1624009131
 H         4.3140583619        5.9660550167      -27.3235235366
 H         5.3398557417        4.5976688687      -26.8436179404
 H         5.3657668087        6.2209575526      -26.0265041614
 Na       -7.3730103622       -3.1499900617       -3.9922414555
 Na        4.1685973953        2.1181044740      -22.0156074017
