232

 C         1.5900846426        6.4469950952      -26.3190816924
 C         2.8253090172        6.2084525352      -25.3518189852
 O         3.1376079210        7.0212577893      -24.4604972212
 C         3.7548995328        4.9387932067      -25.6467470286
 C         4.3676033931        4.4251107911      -24.3405830871
 O         3.8503196052        3.4334325255      -23.7739661309
 C         5.4715021641        5.3175787380      -23.7420773125
 C         6.3047707768        4.5104484590      -22.6868417051
 C         7.2560273690        3.3456157474      -23.0527356500
 O         7.3195363723        2.8767025305      -24.1815892839
 C         8.2451257224        2.7462190806      -21.8392529677
 C         7.2136338347        1.8391984760      -21.0381354010
 O         6.3335463806        2.2972578125      -20.3642499087
 C         7.4719216362        0.3042319190      -21.2289066680
 C         6.5061679497       -0.6442573697      -20.5411123434
 C         5.0865299910       -0.3791413196      -20.8074182341
 O         4.8139958975       -0.0450904637      -22.0008493232
 C         3.9042937488       -0.6894700990      -19.8080483345
 C         3.4469174761        0.6457811002      -19.1359753428
 O         3.1101574391        1.6791729695      -19.7435612338
 C         3.5152457917        0.7845016259      -17.6222584226
 C         2.4286173687        1.5717156928      -16.9568149613
 C         1.0984031359        0.7984480287      -17.1978739576
 O         0.9730607276        0.0913037467      -18.1742933636
 C        -0.0575756794        1.1096443895      -16.2110683088
 C         0.2469394403        0.3702137621      -14.8152350826
 O         1.1301463859        0.7930323792      -14.1278001080
 C        -0.5459793641       -0.9168485650      -14.4935652669
 C         0.1747181606       -1.9881808124      -13.6598873609
 C        -0.5380133743       -2.1564477621      -12.3244830965
 O        -1.2885018460       -1.3590278970      -11.7876824270
 C        -0.1613188582       -3.4622738694      -11.4228856183
 C        -0.9409289722       -3.3300389606      -10.0038919164
 O        -0.3484645579       -3.1510658010       -8.9987161546
 C        -2.4527687251       -3.4901006078      -10.1512636973
 C        -3.2634178019       -3.5321806466       -8.8324757160
 C        -4.8027529713       -3.7719967045       -9.0251627169
 O        -5.2672329910       -4.6087855703       -9.7508296223
 C        -5.7666380161       -2.7198646477       -8.3487120457
 C        -6.2943004874       -3.5024935047       -7.1086539027
 O        -6.2944603418       -2.8360966667       -6.0535845062
 C        -6.6339182951       -4.9475428086       -7.1689299005
 C        -7.6878935674       -5.4034069331       -6.1537508148
 C        -9.0393767424       -4.7362566101       -6.4819805118
 O        -9.1150216901       -3.7828780016       -7.2294775807
 C       -10.2964196837       -5.4557693270       -5.8482294040
 C       -10.1015363050       -5.6690046409       -4.2632200536
 O        -9.4223552394       -4.9700774191       -3.5200832606
 C       -11.0839298213       -6.6388806839       -3.5374398080
 C       -11.1425653081       -6.5627138976       -1.9480611617
 C       -10.2849119971       -7.6717368993       -1.3855923901
 O       -10.3074332859       -8.8043334753       -1.8957038710
 C        -9.2817191457       -7.3162759487       -0.1109920668
 C        -7.9872620076       -6.4283462288       -0.4841059290
 O        -7.9623276217       -5.3172903127       -0.0143614882
 C        -6.8563914411       -7.0984497140       -1.2854987547
 C        -5.5007937581       -6.2023606767       -1.1664998437
 C        -5.1779212550       -5.3405391144       -2.3422797972
 O        -6.1297592201       -5.1813270341       -3.0987960000
 C        -3.7991774138       -4.6022617981       -2.7211094479
 C        -4.0194370092       -3.0577026627       -2.4741817452
 O        -4.9402792825       -2.5054540173       -3.0148523938
 C        -2.9876236363       -2.2600477287       -1.7333463467
 C        -3.6163901394       -1.5049920792       -0.5753832491
 C        -4.7544590363       -2.3008992161        0.1037406435
 O        -4.9392439544       -3.4541711485       -0.3358262279
 C        -5.2974458522       -1.9933621355        1.4757290321
 C        -6.5665979528       -1.1469430156        1.2113172434
 O        -6.5399948797        0.0730971634        1.2830127867
 C        -7.9013395215       -1.8331224251        0.7082577653
 C        -8.7399158520       -0.8773177714       -0.2336416136
 C        -8.5926401752       -1.1290650830       -1.6702754472
 O        -7.6330365287       -1.7980339406       -2.0558401075
 C        -9.6319917994       -0.4946872821       -2.7393536696
 C        -8.8144349044       -0.1987672746       -4.1476809552
 O        -8.1902030836       -0.9989591759       -4.7595844506
 C        -9.1007865305        1.1881938302       -4.8159192534
 C       -10.5640221583        1.2610484550       -5.4331182791
 C       -10.5300582799        1.7193830753       -6.8596554016
 O        -9.5900259011        2.2253471413       -7.4137422089
 C       -11.9205826800        1.5360485654       -7.6838561532
 C       -11.8938500026       -0.0079195388       -7.9678866664
 O       -12.6076916879       -0.7941573179       -7.3909169935
 C       -10.8332735496       -0.5367971517       -8.8776266655
 C       -13.1578866091        2.0727051994       -6.8183975035
 C       -11.7834810033        2.4225106597       -8.9825843347
 C       -10.6042085402       -1.6391667753       -3.1441769293
 C       -10.3031296148        0.7563467973       -2.1499977339
 C        -5.6903989326       -3.3898680842        2.0880920000
 C        -4.4565840478       -1.1643629048        2.3933189783
 C        -2.5989996774       -5.3707420660       -2.0501714435
 C        -3.4912316800       -4.8206412923       -4.2929376878
 C        -9.9447339508       -6.6881863568        1.2121277451
 C        -8.6690393196       -8.7040102830        0.4118796316
 C       -11.6397298997       -4.6119364805       -5.8988169383
 C       -10.4990871941       -6.7301886069       -6.6853507064
 C        -5.1757782590       -1.2850728443       -7.8779146110
 C        -6.9119465219       -2.6594336290       -9.4942797972
 C        -0.5821780781       -4.7607868169      -12.2571863925
 C         1.4004621999       -3.5934314918      -11.3676796826
 C        -0.0589497747        2.6551297436      -15.7586570210
 C        -1.4754565659        0.7110090921      -16.6890954881
 C         2.6695249475       -1.1482975229      -20.7270951026
 C         4.2529605946       -1.8449690389      -18.9041205638
 C         9.4663820852        1.9920516407      -22.4850842686
 C         8.7312446653        3.8733832753      -20.8865341536
 C         3.1798047492        3.7350296935      -26.4395620126
 C         4.8995070271        5.5177167778      -26.4872322214
 H         2.2216642511        6.6666290209      -27.1789484440
 H         1.0071041602        7.3331381548      -25.9763942010
 H         0.9907993352        5.6573848051      -26.7029514016
 H         4.9673575457        6.0936692107      -23.2369551633
 H         6.0990584339        5.6953566616      -24.5391951961
 H         5.5694482425        4.1610913915      -21.9509025548
 H         6.8913990305        5.1820396909      -22.0224147701
 H         8.5209749193        0.2369843628      -21.0177470600
 H         7.3389787440        0.2420954066      -22.3161288572
 H         6.6774738630       -0.4145189155      -19.4382850506
 H         6.8591414250       -1.6701635942      -20.6249923187
 H         4.4363307284        1.4062242491      -17.5868133275
 H         3.7947336715       -0.1964397710      -17.1515434661
 H         2.5235435685        2.5755934071      -17.3444997240
 H         2.6243721994        1.6867296694      -15.8638282354
 H        -0.8426965742       -1.3029143879      -15.4494416937
 H        -1.4541298597       -0.5371804687      -13.9678016891
 H         1.2194476829       -1.7318727777      -13.6510883643
 H         0.1869231978       -2.8232403360      -14.3008781599
 H        -2.7269688772       -4.4016021777      -10.7694330101
 H        -2.8121876112       -2.6292293878      -10.7008563547
 H        -3.0409807200       -2.5928441137       -8.2284263706
 H        -2.9494550424       -4.4601793751       -8.2125816826
 H        -5.7699424347       -5.5752672321       -7.1484039194
 H        -6.9179274522       -5.0756820031       -8.1979732497
 H        -7.2989839807       -5.0429758272       -5.1486534457
 H        -7.8896290412       -6.5702404232       -6.0691464614
 H       -11.0017515578       -7.7020677234       -3.7687828151
 H       -12.0815639226       -6.2956675511       -3.9408780218
 H       -12.1942713815       -6.7032180785       -1.6645084858
 H       -10.8122621149       -5.6324687729       -1.4814159270
 H        -7.0844531467       -7.4507929582       -2.3058114310
 H        -6.5660016281       -8.0655599617       -0.7134078800
 H        -4.6000233194       -6.7338248993       -0.8975787236
 H        -5.7156894055       -5.5897526569       -0.2886909722
 H        -2.6085548445       -1.5672161321       -2.3944670732
 H        -2.2433246214       -2.9400690246       -1.2974353051
 H        -3.8765345742       -0.4582543698       -0.8052914251
 H        -2.8707287416       -1.3408102455        0.2752538180
 H        -8.5397781574       -1.8292933713        1.5595211128
 H        -7.8640869259       -2.8444619201        0.2983311005
 H        -8.4988402394        0.1349328764        0.0292087218
 H        -9.8141123059       -1.0234181023        0.0120092994
 H        -8.5063687859        1.3569258519       -5.7779952830
 H        -8.8200586327        2.0251943054       -4.1585818987
 H       -11.1299348862        1.9657634328       -4.7914829320
 H       -11.1333730508        0.2680105523       -5.3699998577
 H       -11.0862929161       -1.5795180219       -9.1372838592
 H        -9.8128977646       -0.6127373616       -8.3729451798
 H       -10.8999485556       -0.0030141219       -9.7539063497
 H       -13.8357905453        1.3070800819       -6.4229880901
 H       -13.8652574517        2.7231393031       -7.3548891907
 H       -12.7228198080        2.6927572190       -6.0373417582
 H       -11.0794123867        2.0702972141       -9.7523576098
 H       -11.4685407420        3.4556183493       -8.8706621376
 H       -12.7539769172        2.6131906058       -9.4868938431
 H       -11.3224435693       -1.3485604859       -3.9061865599
 H       -11.0809630167       -2.0270938801       -2.2215909872
 H        -9.9489404465       -2.3932060676       -3.6060592101
 H       -10.8733623855        1.1980983763       -2.8937573189
 H        -9.6056504968        1.5128732343       -1.8038191272
 H       -10.7966587740        0.4660218566       -1.2998600603
 H        -6.0997626908       -3.2941567773        3.0838359272
 H        -4.7720179105       -4.0513774347        2.1500114293
 H        -6.4524061132       -3.8294203974        1.5163357272
 H        -3.5101979678       -1.5781820109        2.8115610480
 H        -5.0848994094       -1.0135268881        3.2145529609
 H        -4.2222441259       -0.2259268352        1.9744849601
 H        -2.6365769369       -6.3584424983       -2.5451560490
 H        -2.6580940134       -5.4258471730       -0.9306673268
 H        -1.7511542693       -4.8723206447       -2.3607428680
 H        -3.4274503762       -5.8893901802       -4.3914750608
 H        -2.5976650495       -4.2476670505       -4.6132258526
 H        -4.3728377513       -4.5980734742       -4.7897831527
 H       -10.5397305595       -5.8691765949        0.9147212543
 H        -9.3221803402       -6.3306076075        1.9692145169
 H       -10.6705706466       -7.3368793123        1.7875633044
 H        -7.9173016979       -9.1522234782       -0.2470003296
 H        -9.4389525766       -9.4481229951        0.6609407599
 H        -8.0942873836       -8.5904682052        1.3545015425
 H       -11.6559921522       -3.9022283915       -6.7103231355
 H       -11.9217637693       -4.0302106363       -5.0196577347
 H       -12.5344481961       -5.2405033522       -5.9607873461
 H       -10.8887478995       -6.3029274068       -7.6642928659
 H       -11.1732268860       -7.3505595212       -6.1052771255
 H        -9.6853234955       -7.4568106907       -6.8462500899
 H        -6.0870339160       -0.7195731516       -7.6418364707
 H        -4.6513760818       -0.8972091961       -8.7694607540
 H        -4.4521470922       -1.3993836784       -7.1137232806
 H        -7.3046481389       -3.6570788318       -9.4915818481
 H        -6.2561531715       -2.4578023518      -10.3789609250
 H        -7.6564618682       -1.8855236025       -9.4526749057
 H        -0.4244765731       -5.6314523845      -11.5945306802
 H        -0.0765402589       -4.8661028567      -13.2868322612
 H        -1.5453593095       -4.6373895473      -12.7195977882
 H         1.8126832420       -2.6769427895      -10.9159834916
 H         1.7128432221       -3.8039422043      -12.3976579027
 H         1.6512019814       -4.4102749008      -10.7086013159
 H         0.8046958056        2.9461528368      -15.2409835026
 H        -1.0302589035        2.8489320062      -15.2701348586
 H        -0.1164094596        3.2370936626      -16.7865720306
 H        -1.4369916448       -0.3424446473      -17.0648692111
 H        -1.6808249621        1.4536378405      -17.4965255108
 H        -2.2032566678        0.7268597184      -15.8857108350
 H         2.7695110494       -2.2405605496      -20.9992059454
 H         2.4920038389       -0.5262737650      -21.5620567903
 H         1.6584407286       -1.1472178778      -20.2627958741
 H         4.9467315064       -2.5868937464      -19.3009528062
 H         3.3291549573       -2.3114792998      -18.5533782516
 H         4.8677319354       -1.7058183567      -17.9865646275
 H         9.2051683202        1.4481360962      -23.3715505380
 H        10.0925334630        1.4041610864      -21.8065033539
 H        10.0253032718        2.8214800228      -22.9021978112
 H         9.2244682872        4.6700342656      -21.4487495930
 H         9.6538785910        3.3993540679      -20.5057909911
 H         7.9754625919        4.2434090066      -20.0660221739
 H         2.4476546076        3.9698625544      -27.1844600701
 H         2.6390802534        3.0012432407      -25.8803086509
 H         3.9664122154        3.1517180845      -26.9511158016
 H         4.5843585927        5.6647645965      -27.5349761703
 H         5.5298790081        4.6701906323      -26.7605216253
 H         5.3603794475        6.3548555897      -26.0962635265
 Na       -6.9388207493       -3.2242528118       -3.9071947570
 Na        4.1299616625        2.1369025568      -21.7380333195
