232

 C         2.1433704416        6.5319747564      -26.4805986511
 C         3.0856167637        6.0948532284      -25.4039688831
 O         3.2063397297        6.7132590373      -24.3606454503
 C         3.9502509041        4.8337777718      -25.8505292843
 C         4.5751786941        4.4500062399      -24.4465160894
 O         3.9754875449        3.4952530774      -23.8302535497
 C         5.6076540915        5.3335002149      -23.8309564636
 C         6.3357254909        4.7549694989      -22.6328266359
 C         7.1812522598        3.4728047440      -22.8918010558
 O         6.9467967163        2.8413323846      -23.9071499044
 C         8.1665050589        2.7766336854      -21.8816890185
 C         7.2722989877        1.8882326619      -21.0873146581
 O         6.2555719369        2.2874752671      -20.5259254463
 C         7.4940585556        0.3073258223      -20.9736498356
 C         6.3056637745       -0.2513914533      -20.1268857238
 C         4.9911009087       -0.1187809349      -20.7819035771
 O         4.7979474715        0.3777087595      -21.9092010963
 C         3.7123654815       -0.4865689617      -19.9784629934
 C         3.3569263695        0.8801655208      -19.2043875435
 O         3.1303965691        1.9311446831      -19.8843578109
 C         3.3586574932        0.8702622903      -17.6622207767
 C         2.2417402095        1.7044351521      -17.1084270680
 C         0.8773366481        1.0173441011      -17.2844976707
 O         0.7661353920        0.2259714462      -18.1952040780
 C        -0.1825277484        1.1023314858      -16.1094190388
 C         0.3988197859        0.1739808817      -15.0301451400
 O         1.4059271356        0.4695891261      -14.4428632590
 C        -0.2834008395       -1.1444699725      -14.6915531672
 C         0.4664481235       -1.8385615765      -13.5224914236
 C        -0.3864036862       -2.1754200835      -12.3665801658
 O        -1.4138600950       -1.5779778313      -12.1153519486
 C        -0.0621705101       -3.4998950900      -11.4280717715
 C        -1.0366639190       -3.4668704445      -10.1511506359
 O        -0.5871889489       -3.4483861254       -9.0432322262
 C        -2.5091557685       -3.5734199918      -10.2745690442
 C        -3.2161938958       -3.1593324199       -9.0276103624
 C        -4.6889670278       -3.6025415416       -9.1103324801
 O        -5.0093623464       -4.7479145253       -9.4052305812
 C        -5.7317849063       -2.7013452072       -8.5071313075
 C        -6.2044396845       -3.5419182898       -7.1886463565
 O        -6.0004915543       -2.9778069692       -6.0729382650
 C        -6.7725424737       -4.8876714485       -7.3785530076
 C        -7.7595218862       -5.3855002186       -6.3338780331
 C        -9.1962467407       -4.7622265345       -6.5284343105
 O        -9.3102133407       -3.6902881155       -7.1053245389
 C       -10.3703211178       -5.4584618282       -5.7245512764
 C       -10.0787478069       -5.4761800224       -4.2084933091
 O        -9.2068918506       -4.7954450320       -3.7098524652
 C       -10.9481494507       -6.5520142749       -3.3542254517
 C       -10.6764766967       -6.3129437278       -1.8957304555
 C       -10.0675310122       -7.5055004613       -1.2062607843
 O       -10.1217170556       -8.6640516189       -1.6367852294
 C        -9.2171565319       -7.1632289124        0.0190488551
 C        -7.8305845681       -6.4294016803       -0.4542651063
 O        -7.6420465997       -5.2346837685       -0.2305141660
 C        -6.7899337566       -7.2282077936       -1.1369922392
 C        -5.4052405246       -6.4234561316       -1.2365488095
 C        -5.3530197999       -5.4153470449       -2.4346923457
 O        -6.2741109058       -5.2479772657       -3.2095633295
 C        -3.9664283701       -4.7222917596       -2.6924266876
 C        -3.9939862145       -3.0327913707       -2.6082221094
 O        -4.8689494263       -2.3434874359       -3.2011566476
 C        -2.8848609193       -2.4695568686       -1.7136630406
 C        -3.4548892469       -1.7162401473       -0.5051043898
 C        -4.5244626178       -2.4941797711        0.2298533063
 O        -5.0197630131       -3.5042815843       -0.2920432438
 C        -5.0932050755       -2.0146479938        1.5971347976
 C        -6.2929942733       -1.2123958356        1.0661159111
 O        -6.2985465549        0.0053458648        0.9339232890
 C        -7.5933304831       -2.1021074553        0.6030237464
 C        -8.5583898126       -1.1500871009       -0.1331873551
 C        -8.4421575917       -1.3533849727       -1.6154868428
 O        -7.5029868456       -1.9438926025       -2.1150639916
 C        -9.6734301766       -0.7720206171       -2.5976642994
 C        -9.1941625042       -0.3990773178       -4.0873347732
 O        -8.5405533303       -1.1913301612       -4.7265975061
 C        -9.4062548959        1.0734913210       -4.5825707807
 C       -10.7525997046        1.3000172673       -5.3295952967
 C       -10.6870202101        1.9369074953       -6.6829305629
 O        -9.7395879244        2.6032787102       -7.0444390891
 C       -11.8771053471        1.5682026751       -7.6463587450
 C       -11.9076187950       -0.0161285763       -7.7933536071
 O       -12.9033985827       -0.5850064502       -7.3878200304
 C       -10.8127603048       -0.8141244831       -8.5792522079
 C       -13.3186264369        1.9011459260       -7.0708695067
 C       -11.7594933585        2.0525383834       -9.1713417830
 C       -10.5548532903       -2.0093753705       -2.7451190704
 C       -10.4821023404        0.4306063982       -1.9726078752
 C        -5.5443343449       -3.2051218058        2.4036564290
 C        -4.1124747239       -1.1363140150        2.4488172585
 C        -2.8059606245       -5.4852200564       -1.9785805016
 C        -3.7640570652       -4.8485892587       -4.2982543958
 C       -10.0466480710       -6.2576270239        0.9180219800
 C        -8.7579449845       -8.5003633227        0.8476025574
 C       -11.6162647359       -4.5414464975       -5.9641718611
 C       -10.5834673942       -6.9954733158       -6.2174611234
 C        -5.1689189595       -1.3352860601       -8.1191614052
 C        -6.9780494865       -2.6536678138       -9.4646573974
 C        -0.3840252403       -4.7295000825      -12.2600022667
 C         1.4190251746       -3.5420108939      -10.9021587485
 C        -0.4033129613        2.6132538122      -15.6880456625
 C        -1.5765907557        0.5727671672      -16.7202410179
 C         2.4286393415       -0.8680291389      -20.8106199735
 C         3.9509293997       -1.6778307480      -19.0129484579
 C         9.3130025195        2.0366550282      -22.6754551942
 C         8.9065088724        3.8353638509      -20.9829387489
 C         3.1155878421        3.5434021396      -26.3592515425
 C         5.0383903738        5.2790262020      -26.8300762749
 H         2.0630128428        5.8134347450      -27.3338408592
 H         2.5663740583        7.4977459617      -26.7137223001
 H         1.1397566245        6.6452884128      -26.1139762852
 H         5.0645858358        6.2712459752      -23.5623021438
 H         6.3794264803        5.5103447038      -24.6298185685
 H         5.6388470238        4.3768869030      -21.8254564650
 H         6.8737408193        5.5401735932      -22.1662962063
 H         8.5400886374        0.1425737255      -20.6405172731
 H         7.4267491053       -0.1195427669      -21.9137983469
 H         6.1968218814        0.2510300997      -19.2485790075
 H         6.5288064896       -1.2457360810      -19.7863956999
 H         4.2690264323        1.3962965564      -17.4813282101
 H         3.4936031719       -0.0916036043      -17.2288645310
 H         2.1664695984        2.5069693403      -17.8116814948
 H         2.5134209352        2.1916676537      -16.1602439946
 H        -0.2799462183       -1.7758425455      -15.5939320700
 H        -1.3366302365       -1.0277022809      -14.3824424157
 H         1.3859980457       -1.3209203321      -13.1703569597
 H         0.8558800763       -2.7335283413      -13.9517407419
 H        -2.7765958796       -4.5871612956      -10.5235382928
 H        -2.7742362070       -2.9618257116      -11.1059682818
 H        -3.0209437691       -2.1283826530       -8.9061832905
 H        -2.7073121433       -3.5898273623       -8.1691859652
 H        -5.8438019061       -5.5487949231       -7.3988793476
 H        -7.1883709942       -5.0787275440       -8.3606214296
 H        -7.5760734371       -4.9823800121       -5.3311854130
 H        -7.8049080003       -6.4579013496       -6.1558346988
 H       -10.5712547671       -7.4840108692       -3.7620069558
 H       -11.9702954193       -6.4366556000       -3.6037831006
 H       -11.6598616527       -6.1273517137       -1.3601168978
 H        -9.9846191826       -5.4261048540       -1.8425417926
 H        -6.9969004576       -7.4694429657       -2.1670710754
 H        -6.6974241739       -8.1909053249       -0.6674677962
 H        -4.5111489519       -7.0847808937       -1.3823848506
 H        -5.2007164329       -5.8842521648       -0.2342110498
 H        -2.1816617177       -1.8860871365       -2.1987152363
 H        -2.3729029596       -3.3761749708       -1.2677757621
 H        -3.8719049169       -0.8136374145       -0.8239652258
 H        -2.6476746721       -1.4336493118        0.1612621449
 H        -8.1729965807       -2.5738149076        1.4218579923
 H        -7.3510585665       -2.9116805572       -0.1106033061
 H        -8.3577865936       -0.0467091138        0.0800552584
 H        -9.6239455827       -1.2126943966        0.1946385401
 H        -8.5682674520        1.1954894787       -5.2609022280
 H        -9.1162395266        1.7632564810       -3.8116809959
 H       -11.3484379422        1.9705679640       -4.6426864280
 H       -11.1704756658        0.2979964326       -5.3828634846
 H       -10.3811013600       -1.7185720751       -8.0604961691
 H       -10.0111404137       -0.1056417580       -8.8295861611
 H       -11.2246302537       -1.1610125031       -9.4997720580
 H       -13.2921530303        1.8616181896       -5.9208118708
 H       -14.0561112643        1.1995102164       -7.5086090125
 H       -13.6725765889        2.8788516758       -7.3443394129
 H       -10.7991235673        1.9959373661       -9.6067657710
 H       -12.1995369828        3.0380616981       -9.3955827143
 H       -12.5038614478        1.4781948520       -9.7340619715
 H       -11.4508593011       -1.8200996529       -3.2982867533
 H       -10.6996121949       -2.4584098136       -1.7694792586
 H        -9.9833517573       -2.7205222180       -3.3737858292
 H       -11.2044792986        0.8303010374       -2.7485467272
 H        -9.7567282269        1.2699416004       -1.7391368081
 H       -10.9391017642        0.1401307167       -1.0504257078
 H        -6.3188945145       -3.0337494752        3.1492444194
 H        -4.6574805832       -3.7927863995        2.6869656966
 H        -6.0146086397       -3.8527865882        1.6582637753
 H        -3.1686511713       -1.6435142012        2.8129378514
 H        -4.5946670895       -0.8659878746        3.3813433573
 H        -3.7603634377       -0.2059826664        1.9555097191
 H        -2.9101672239       -6.4735987829       -2.3684820093
 H        -2.9246014075       -5.4743681020       -0.8824541321
 H        -1.9207423399       -4.9228004227       -2.2209905221
 H        -3.7755757787       -5.9159465004       -4.6256784260
 H        -2.7790385023       -4.4576000835       -4.5285861494
 H        -4.6164936961       -4.2958722920       -4.7177718394
 H       -10.0421602558       -5.1795661928        0.7104079982
 H        -9.7650367123       -6.3959950299        1.9689749338
 H       -11.1322901976       -6.5719452894        1.0173268475
 H        -8.3324286020       -9.3194672311        0.2546348935
 H        -9.4852477308       -8.8972007429        1.5149152171
 H        -7.8822175437       -8.2209265267        1.3912802846
 H       -11.8908525777       -4.4835761564       -7.0021438545
 H       -11.3358746915       -3.5334969655       -5.6757352111
 H       -12.5478403612       -4.6841714860       -5.3930976340
 H       -10.3063384415       -6.9762782987       -7.2997285373
 H       -11.6042124107       -7.1637578683       -6.2279346820
 H       -10.1142070548       -7.7722762840       -5.6744683618
 H        -6.0401900159       -0.8291722601       -7.6772603310
 H        -5.0504727744       -0.7794922175       -9.0636572331
 H        -4.2946292309       -1.4567955610       -7.5235965561
 H        -7.2228812418       -3.6392113282       -9.8370699086
 H        -6.8701526475       -1.9295318170      -10.3155029761
 H        -7.7702504518       -2.3716315818       -8.7518567347
 H        -0.4380511647       -5.6865764619      -11.6859375021
 H         0.4476749464       -4.9006513916      -12.9897368425
 H        -1.2648960957       -4.5217173536      -12.8113928658
 H         1.6027698379       -2.9429420385       -9.9784111772
 H         2.0299732231       -3.2288936287      -11.8155207942
 H         1.5464190910       -4.5851061958      -10.7540287815
 H         0.4476383447        2.8838162381      -15.1675219556
 H        -1.2863168005        2.6924242590      -15.0734308313
 H        -0.5256753925        3.2226919632      -16.5867973695
 H        -1.4124202663       -0.4274812809      -17.0861530744
 H        -1.9218306312        1.2405480296      -17.4811945551
 H        -2.3285956818        0.4722492527      -15.9663173178
 H         2.4848573387       -1.6690559385      -21.5168745774
 H         1.9756397058        0.0150069804      -21.2566905450
 H         1.6386555813       -1.1272607274      -20.1594469016
 H         3.8550460317       -2.6004458825      -19.6048176608
 H         3.2012311776       -1.8679484091      -18.3150686437
 H         4.9306529590       -1.8179343868      -18.5158365219
 H         8.8775100074        1.1791104137      -23.1417828070
 H        10.0683944272        1.5390130965      -21.9704362942
 H         9.7476007869        2.6258750652      -23.5324419701
 H         9.4276471486        4.4616789795      -21.6669475005
 H         9.5474243367        3.4097832591      -20.2398402828
 H         8.0378357504        4.3420130856      -20.4885919542
 H         2.5805327577        3.5650416975      -27.2991210878
 H         2.4161368060        3.2181291535      -25.6165513577
 H         3.7069320739        2.5975510715      -26.4674185696
 H         4.6200806996        5.3213154438      -27.8391078011
 H         5.7677792847        4.3836616062      -26.9400517790
 H         5.5445588455        6.1730215390      -26.5092876489
 Na       -7.2022159597       -3.0286026059       -4.0557822883
 Na        3.9333492294        2.4055996093      -21.8791420588
