232

 C         2.1427689170        6.7519704268      -26.6106951333
 C         3.1495290952        6.0623291838      -25.5694440434
 O         3.2171705330        6.5221887760      -24.4188580621
 C         4.0185729451        4.7569165098      -25.8285092770
 C         4.6105777365        4.4265934637      -24.4200377395
 O         4.0751729085        3.5367210867      -23.7924035296
 C         5.6923322257        5.4040618970      -23.7943496358
 C         6.4013898245        4.8193690896      -22.5364159171
 C         7.1978192694        3.4575982284      -22.9272675787
 O         6.8542141621        2.8219178376      -23.9165716129
 C         8.1553090661        2.8664429527      -21.9275297184
 C         7.1649121784        1.8795596726      -21.0963616434
 O         6.2082344842        2.3471854943      -20.6063370441
 C         7.5158925922        0.3906188550      -20.7801316722
 C         6.3158293072       -0.3720827071      -20.1327421874
 C         4.9099845327       -0.1160706127      -20.7889505399
 O         4.8559253937        0.3075945506      -21.9188968392
 C         3.5175616215       -0.4428010797      -19.9662650253
 C         3.3395147069        0.9497301397      -19.1658628236
 O         3.1025321570        1.9491046445      -19.7830552196
 C         3.3183647951        1.0202624024      -17.6676544926
 C         2.1665061611        1.8876540988      -17.0628222137
 C         0.8491344403        1.0145324958      -17.2792737102
 O         0.7464945356        0.2516832616      -18.2111815556
 C        -0.2449461488        1.0703467391      -16.1443807804
 C         0.4184176740        0.1632130228      -15.0636562713
 O         1.5267624794        0.5080327390      -14.6790858434
 C        -0.1613043153       -1.2377067373      -14.7383922928
 C         0.5279544699       -1.8857941244      -13.4773337189
 C        -0.4374196910       -2.2106140721      -12.2861342315
 O        -1.4859385110       -1.5971115945      -12.1953148740
 C         0.0240643791       -3.4720385422      -11.3982362143
 C        -0.9126823109       -3.5255066421      -10.0726661022
 O        -0.4981508185       -3.5081230021       -8.9579796271
 C        -2.4840506835       -3.6463893123      -10.4613258215
 C        -3.3146627864       -3.0844409042       -9.3183707530
 C        -4.7173024405       -3.6847246571       -9.0831083709
 O        -4.9977620830       -4.7789714592       -9.4575383813
 C        -5.8315465695       -2.7079098496       -8.4093947885
 C        -6.2278836158       -3.5296350619       -7.1337717431
 O        -6.0053019083       -3.0193456513       -6.0896354637
 C        -6.8519442853       -4.8712926161       -7.4358439692
 C        -7.7359358126       -5.3064116710       -6.2633777551
 C        -9.1269928828       -4.7636829013       -6.4725458644
 O        -9.3161568761       -3.7247496174       -7.0721744078
 C       -10.3313415751       -5.4660944116       -5.8150307841
 C        -9.9875785455       -5.4402180271       -4.2983940626
 O        -9.1780429779       -4.7238863271       -3.7425423757
 C       -10.8037643812       -6.3370812834       -3.3454459099
 C       -10.4844653086       -6.1520076841       -1.8190737070
 C        -9.9554944948       -7.4970537938       -1.2214700435
 O       -10.0318055102       -8.5773658707       -1.7342385490
 C        -9.1045823630       -7.1451487727        0.1811036877
 C        -7.8141742611       -6.3940183029       -0.4029836455
 O        -7.6765065354       -5.2354972815       -0.2272039615
 C        -6.8452047956       -7.2858804734       -1.1650746207
 C        -5.4649327345       -6.4378481904       -1.3656744081
 C        -5.4768157107       -5.4284726878       -2.4752134775
 O        -6.4482654714       -5.2082143257       -3.1438978749
 C        -4.0216193068       -4.7082602658       -2.8113646875
 C        -4.0741733301       -3.1722753784       -2.5319885180
 O        -4.7261738143       -2.4797510003       -3.2224724095
 C        -2.9394224036       -2.4404030694       -1.7435124976
 C        -3.4429848980       -1.7762509519       -0.4691804238
 C        -4.4576887474       -2.6123007049        0.3214913459
 O        -4.8938433612       -3.6314161478       -0.2390111735
 C        -5.0992282135       -2.0673608563        1.6026649654
 C        -6.3114973012       -1.1562963541        1.1468038071
 O        -6.2110156115       -0.0135326197        0.8241416015
 C        -7.3882206815       -2.0161863982        0.6212505599
 C        -8.5255356851       -1.2011325654       -0.0489674983
 C        -8.5116227318       -1.3364801470       -1.6128348224
 O        -7.5717482890       -1.8783855041       -2.1385549355
 C        -9.6502353120       -0.8371943440       -2.5392280840
 C        -9.1109304229       -0.3873630731       -4.0172047412
 O        -8.6679145395       -1.2534017299       -4.7088658575
 C        -9.4345860856        0.9897095681       -4.5420742585
 C       -10.9162547374        1.1703453617       -5.2484552538
 C       -10.7835162658        1.9053241287       -6.6817915868
 O        -9.8233082307        2.6285503496       -6.9404393282
 C       -11.9004843237        1.4872187856       -7.6557857333
 C       -11.9622436071       -0.1067326894       -7.7925535402
 O       -12.8987641521       -0.7089724926       -7.3430071105
 C       -10.8016253846       -0.8130031601       -8.4039106391
 C       -13.2458805562        2.0300216910       -7.1523692882
 C       -11.7089476387        2.0133289614       -9.0387684025
 C       -10.6333590954       -2.1480194097       -2.6756447263
 C       -10.4508845791        0.2562278107       -1.8562255474
 C        -5.6224805893       -3.1786845049        2.5639847289
 C        -4.0800098564       -1.0927780449        2.2797285733
 C        -2.9000697099       -5.4411836713       -2.1011100200
 C        -3.7267893287       -4.9083497278       -4.3375234823
 C        -9.9687682917       -6.1604811039        1.0076684290
 C        -8.6961781547       -8.2517589667        1.0277352314
 C       -11.6590322259       -4.6631341243       -5.9759436872
 C       -10.7317834601       -6.9186041423       -6.2157416325
 C        -5.3707673244       -1.2843725927       -8.0853466634
 C        -6.9488934292       -2.6340309753       -9.4926715262
 C        -0.2601872121       -4.7378379211      -12.2744977926
 C         1.5249324759       -3.5183907359      -11.0489409136
 C        -0.4491941168        2.4964885428      -15.6505755032
 C        -1.6289156267        0.5123071833      -16.6686841677
 C         2.3905982006       -0.7530270811      -20.8829291397
 C         3.7824190173       -1.6309089529      -19.0743703145
 C         9.2775343629        2.0711752815      -22.6812542775
 C         9.0047176993        3.8454511722      -20.9991110389
 C         3.2037592519        3.5842371839      -26.3438411615
 C         4.9252507273        5.1274872370      -27.0315462209
 H         1.9554512899        5.9984523264      -27.3454188725
 H         2.7486023399        7.6023068985      -27.0493870095
 H         1.1685797713        7.0274891333      -26.2442267138
 H         5.0825293546        6.2289692519      -23.5447255384
 H         6.4603309893        5.6834223687      -24.5271684334
 H         5.7069152234        4.5986673967      -21.7153423493
 H         7.1226955785        5.5856562786      -22.1443204517
 H         8.3891176281        0.3588182726      -20.2008386499
 H         7.8135826859       -0.0485009798      -21.7064919357
 H         6.2616774597        0.0020175891      -19.0201692244
 H         6.6236426052       -1.3379386207      -20.0136527315
 H         4.2748772595        1.3761802101      -17.3727554859
 H         3.2563993272        0.0390569153      -17.1924961240
 H         2.0568189918        2.9046617889      -17.3620654955
 H         2.4456666753        1.9063877028      -16.0056455378
 H        -0.0650005409       -1.8054387756      -15.6677625224
 H        -1.2609084673       -1.2367049910      -14.4607725535
 H         1.0905611889       -1.1319423845      -12.9653350412
 H         1.2626493551       -2.5797210411      -13.7776531766
 H        -2.7885731282       -4.6901570403      -10.6509202613
 H        -2.5459564972       -3.1374466212      -11.3823975774
 H        -3.3006426920       -1.9703839095       -9.3692834816
 H        -2.6186491352       -3.1980118160       -8.4425166122
 H        -6.0341121466       -5.5612149147       -7.5731062949
 H        -7.4448312338       -5.0089119098       -8.3432975944
 H        -7.4644575485       -5.0596087436       -5.2073611258
 H        -7.9300781248       -6.4810091845       -6.2105130747
 H       -10.6656253080       -7.3066086079       -3.7158667887
 H       -11.8184183884       -5.9926409579       -3.5726486454
 H       -11.3876637053       -5.7711326061       -1.2650976855
 H        -9.6203208417       -5.4177286361       -1.7863460457
 H        -7.1447024107       -7.7042321754       -2.1298373975
 H        -6.6200644557       -8.2411642231       -0.5618740039
 H        -4.5829197849       -7.0841905484       -1.6466877874
 H        -5.1669504035       -6.0048787187       -0.3733324441
 H        -2.4691402678       -1.7259784505       -2.3773533281
 H        -2.1597000534       -3.0722399565       -1.4317834651
 H        -3.9534813833       -0.8625838755       -0.7466420459
 H        -2.5613713162       -1.5062381310        0.1360395050
 H        -7.8083436369       -2.5550045108        1.4268837762
 H        -6.9801313925       -2.7657543762       -0.0822615649
 H        -8.4467539137       -0.1122790868        0.2232397035
 H        -9.5350965233       -1.4408504601        0.4036065497
 H        -8.6261860494        1.0036521525       -5.3301357122
 H        -9.0853160153        1.7496741642       -3.8933305799
 H       -11.4768593944        1.8526805140       -4.5829945997
 H       -11.3437210966        0.0865722011       -5.3048763630
 H       -10.2364030682       -1.4969251807       -7.7949126254
 H       -10.1525279710       -0.0444666923       -8.9186820893
 H       -11.1882384062       -1.3997031507       -9.1667196798
 H       -13.2407327483        2.2598883830       -6.1310738500
 H       -14.0831444355        1.3826433616       -7.5312723190
 H       -13.4735125829        3.0290259653       -7.6677808938
 H       -10.6132375148        1.9574879792       -9.3614137048
 H       -12.0847872320        3.0174049387       -9.2005413055
 H       -12.3685742151        1.4707012502       -9.7580639868
 H       -11.3805660129       -2.0140550027       -3.5076936031
 H       -11.0692606343       -2.4018665979       -1.6508998917
 H       -10.0093037386       -2.9943286785       -3.0037933496
 H       -11.2534380444        0.5202156162       -2.5063460510
 H        -9.8163728781        1.1344738987       -1.6812396727
 H       -10.8682437885       -0.1081624151       -0.9104280794
 H        -6.4147609851       -2.8556471195        3.2403776609
 H        -4.6828262989       -3.6187686459        3.0108027033
 H        -6.0080196688       -3.9994188323        2.0026790949
 H        -3.0477720821       -1.5197615567        2.3673919810
 H        -4.3205916535       -0.9056073714        3.3052967341
 H        -3.9765423505       -0.1459122415        1.7975250322
 H        -2.8399346875       -6.4575495135       -2.5174818910
 H        -3.1081750392       -5.4470819326       -1.0118613957
 H        -2.1016967489       -4.8313922907       -2.2411527089
 H        -3.7725989426       -5.9854741666       -4.5055546739
 H        -2.6354568657       -4.6548640928       -4.5226885224
 H        -4.4313058027       -4.3503501101       -4.8734633171
 H        -9.7720264807       -5.1114549897        0.7563549046
 H        -9.9582291396       -6.2485693767        2.1015885356
 H       -11.0907125262       -6.3189745817        0.8254449824
 H        -8.1521972054       -9.0529920880        0.5403879630
 H        -9.5776513188       -8.7044968956        1.5272439791
 H        -7.9440661270       -7.9011292106        1.7576737457
 H       -12.2522776047       -4.8953935318       -6.8568165735
 H       -11.4472107263       -3.5920794535       -5.9975273364
 H       -12.3702174855       -4.7354205827       -5.1593177912
 H       -10.9775436227       -6.9282494521       -7.2668067007
 H       -11.7077120374       -7.1411539098       -5.7287666186
 H        -9.9484399377       -7.6479433532       -6.0156397146
 H        -6.3283830799       -0.7612664608       -7.9003793538
 H        -5.0220626082       -0.7817987523       -9.0315119146
 H        -4.6750597926       -1.3414262520       -7.2228826677
 H        -6.7951957670       -3.5349087489      -10.1706441078
 H        -6.8036936953       -1.7134999712      -10.1415832721
 H        -7.9298725417       -2.7048334759       -9.0323359530
 H         0.0244011258       -5.6478710432      -11.7724688949
 H         0.4866443737       -4.7141649113      -13.1712838891
 H        -1.3639277436       -4.7875288081      -12.5975328607
 H         1.7409525834       -2.6122658469      -10.3965583577
 H         2.0458755088       -3.4892047304      -11.9703854159
 H         1.6886607018       -4.5463973813      -10.5181673165
 H         0.4136460630        2.7535364014      -15.1020553931
 H        -1.2090636837        2.4382001889      -14.8987979111
 H        -0.7082002450        3.2633602117      -16.3973426839
 H        -1.5001751038       -0.5359619465      -16.9923608646
 H        -2.1946270422        1.1331415766      -17.3929063277
 H        -2.2332742042        0.4297782094      -15.7790429972
 H         2.6226747347       -1.4943334602      -21.6755426687
 H         2.0799342008        0.1070935901      -21.3298068241
 H         1.4640171378       -1.1039033942      -20.4142119855
 H         3.9686313156       -2.5837816472      -19.5743341179
 H         2.9412724143       -1.9670901791      -18.4407994346
 H         4.6378172129       -1.4193535601      -18.4456156874
 H         8.6934310439        1.5026561751      -23.5158401201
 H         9.7902895232        1.3194354243      -22.1477496114
 H         9.9131301562        2.7711709855      -23.2857998760
 H         9.4820630429        4.6766821447      -21.5928583169
 H         9.7397960428        3.1391884063      -20.5771152220
 H         8.3370877321        4.0964822816      -20.1099040848
 H         3.1715304576        3.6945616259      -27.4046248100
 H         2.1917074209        3.4328031342      -26.0185783314
 H         3.5940726196        2.5869106006      -26.2549087129
 H         4.1986586612        5.2664373392      -27.9331640806
 H         5.5493005528        4.3220204505      -27.3377871352
 H         5.5236960831        6.0038410635      -26.8271544778
 Na       -7.2718140170       -3.1095557972       -4.0978945565
 Na        3.9736604109        2.5337374569      -21.8751278682
