232

 C         2.8597025492        6.8633564643      -27.1613066706
 C         3.1450124595        6.1904852392      -25.8178617099
 O         2.6522817309        6.5222266141      -24.7713251588
 C         4.0000153288        4.6932771825      -25.8240626709
 C         4.6918056905        4.5294699173      -24.4570695183
 O         4.2146861988        3.7566874084      -23.7010198193
 C         5.9763672367        5.4224951033      -24.0488518360
 C         6.7295272171        4.8856168940      -22.8249268916
 C         7.1020341546        3.3952588921      -23.2033923262
 O         7.0189126860        2.9094116437      -24.2871290451
 C         7.9400855158        2.6937316322      -21.9500292043
 C         7.0326358345        1.9222920868      -20.8246016216
 O         6.0974494613        2.4486117787      -20.3522218318
 C         7.3100200965        0.4330769135      -20.5791985068
 C         6.1153877363       -0.1578262990      -19.8731961478
 C         4.8577496423        0.1532040219      -20.7515368410
 O         4.9989130287        0.4724055175      -21.8966214300
 C         3.4482030322       -0.0517931844      -20.0988287449
 C         3.1920568895        1.3561462108      -19.3465139280
 O         3.1468798715        2.3578332186      -19.9820633593
 C         3.1802235127        1.4499204178      -17.7958253577
 C         1.8773805574        2.1217741522      -17.2825862258
 C         0.7009383216        1.1348057630      -17.3943261890
 O         0.5459775816        0.5596458620      -18.4655149135
 C        -0.2538175010        0.8442441012      -16.2080655896
 C         0.6854937233       -0.0439981723      -15.1473440326
 O         1.7547320093        0.4375948780      -14.7648242624
 C        -0.0144340702       -1.2437474138      -14.6121245210
 C         0.6375412526       -1.9125961740      -13.4236441032
 C        -0.3987198282       -2.4089347900      -12.3945289396
 O        -1.5477293049       -2.0178183285      -12.3556798747
 C         0.0969117391       -3.5545709072      -11.4654980430
 C        -0.8078754807       -3.6008624685      -10.1453548315
 O        -0.3176568967       -3.4795101003       -9.0111583352
 C        -2.3289982877       -3.8930759868      -10.3633198898
 C        -3.3977461008       -2.8497494526       -9.8946842721
 C        -4.6686165301       -3.5251092826       -9.5047629970
 O        -4.7501594137       -4.7277499581       -9.6303841732
 C        -5.8463322152       -2.7562715690       -8.7001940564
 C        -6.3947095342       -3.5835576947       -7.4916791315
 O        -6.4235871597       -3.1901004964       -6.3682971409
 C        -6.8131072667       -5.0369991838       -7.7881832394
 C        -7.8044020098       -5.5478122774       -6.6853571228
 C        -9.2003159271       -4.8133234995       -6.6771679355
 O        -9.4377790932       -3.8223149658       -7.3171955964
 C       -10.3826268671       -5.4260770285       -5.7816978817
 C       -10.0142923444       -5.3311439070       -4.2722540887
 O        -9.2160773043       -4.5139097452       -3.7978829200
 C       -10.7412768307       -6.2486904122       -3.2510952752
 C       -10.5385833923       -5.8181997935       -1.7334731550
 C        -9.7732017512       -6.9244411992       -0.9746038797
 O        -9.5957080864       -7.9718499081       -1.5393879226
 C        -8.9582837785       -6.6746792110        0.3924840859
 C        -7.5460481975       -6.1913812046       -0.1217000021
 O        -7.1391219443       -5.0790945650        0.1420236188
 C        -6.9090130403       -7.1798172598       -1.0001221659
 C        -5.4174456309       -6.6968210624       -1.4199230434
 C        -5.5261160473       -5.6113819833       -2.4369218775
 O        -6.6377685673       -5.1652448772       -2.8013141204
 C        -4.1041129351       -4.9402855184       -3.0396271727
 C        -4.1634233534       -3.4331215866       -2.7017735820
 O        -5.1057159750       -2.7736353779       -3.0839890280
 C        -3.0366616562       -2.6373850176       -1.8717531375
 C        -3.6199024293       -1.8748648839       -0.6684390382
 C        -4.1910779939       -2.8177083054        0.4345488019
 O        -4.1419780406       -4.0257768411        0.4801883310
 C        -4.9657468988       -1.9698056795        1.5229959051
 C        -6.1864353627       -1.2843467475        0.8944753609
 O        -5.9327460148       -0.1817175643        0.5079158689
 C        -7.5228340082       -1.8953530682        0.8092429714
 C        -8.6028279502       -1.0834516528        0.0708724756
 C        -8.6039099664       -1.4088209857       -1.4333151281
 O        -7.5545097605       -1.9295204479       -1.9025929824
 C        -9.9136304667       -0.9777791165       -2.3147911041
 C        -9.4040730727       -0.6368241647       -3.8250932169
 O        -8.8792648186       -1.5095087603       -4.4949036477
 C        -9.7113870374        0.7382882354       -4.3113580602
 C       -11.0893223043        0.7876417751       -4.9764350324
 C       -10.9009433909        1.6956210267       -6.2347616689
 O       -10.0026497049        2.4780977689       -6.2424843719
 C       -11.9176906383        1.3159548016       -7.4615955073
 C       -12.0393057154       -0.2660230964       -7.6415312611
 O       -13.0214839678       -0.8194319803       -7.2392894876
 C       -10.7594708134       -1.1183397772       -7.8919430717
 C       -13.4225156937        1.7750399866       -7.2597786011
 C       -11.3255873999        1.9182429340       -8.8457694945
 C       -10.8593171666       -2.2346308691       -2.3027699944
 C       -10.6158933841        0.1941218202       -1.6007611544
 C        -5.3511252400       -2.9932719662        2.5792305720
 C        -3.8962918947       -1.0227195480        2.0844430857
 C        -2.7196685669       -5.5677895486       -2.3879905028
 C        -4.1511401848       -5.2556897722       -4.5873634188
 C        -9.5185819799       -5.7503682938        1.5065484248
 C        -8.8324404509       -8.0428241478        1.0548074664
 C       -11.5889787865       -4.5178889470       -5.9291085943
 C       -10.9469672348       -6.8253759374       -6.1764782496
 C        -5.4697594301       -1.3058757599       -8.2425905377
 C        -7.0374026481       -2.6420466093       -9.6897568743
 C         0.1946019395       -4.8642569351      -12.3141598404
 C         1.6558155416       -3.3197231856      -11.0223106051
 C        -0.5945798465        2.2049461954      -15.3743959394
 C        -1.4416379621        0.0472810261      -16.6669184453
 C         2.2095505072       -0.1554546277      -21.1004036110
 C         3.4007698161       -1.2650013481      -19.1316999130
 C         8.9788655430        1.8038310406      -22.5781105721
 C         8.6268437679        3.7838224235      -21.0468271764
 C         3.0478330840        3.6463535662      -26.2562333276
 C         5.1658069149        4.7871932859      -26.9785351114
 H         2.1786428502        6.2153628381      -27.6322636876
 H         3.7970845238        6.9140272596      -27.7502816732
 H         2.3479244629        7.7729616614      -26.8448564323
 H         5.6075968878        6.4284472031      -23.8228895365
 H         6.7274750786        5.5452597535      -24.8828881308
 H         6.2513104069        4.9908392550      -21.8641316591
 H         7.7405466071        5.3577077565      -22.8263513533
 H         8.1906541694        0.1689416568      -20.1709865755
 H         7.3314651140        0.1006903377      -21.6126428647
 H         6.0733018221        0.3791352407      -18.8913877975
 H         6.3093516635       -1.1417970316      -19.6472609552
 H         3.9861022180        2.0514978601      -17.5295451055
 H         3.3141261422        0.4910676591      -17.3357041622
 H         1.7337645426        3.0697991988      -17.7774855616
 H         2.0745957983        2.3728958021      -16.2467838891
 H         0.0369061587       -1.9496315123      -15.4485486611
 H        -1.1144596367       -1.1023005756      -14.3981434571
 H         1.3389704303       -1.2218070161      -12.9682482455
 H         1.2335538483       -2.7683947884      -13.7548657394
 H        -2.4985627129       -4.8280185635       -9.8517039027
 H        -2.4650774252       -4.1441206160      -11.3788748614
 H        -3.4544526673       -2.0825319157      -10.6529737096
 H        -3.1272311279       -2.2225863215       -9.0800712906
 H        -5.9676924082       -5.6683614409       -7.5427586356
 H        -7.1761718196       -5.2403641552       -8.8205369282
 H        -7.2171791900       -5.5778629098       -5.7577811381
 H        -8.1818950368       -6.6421977582       -6.7315754887
 H       -10.3954290672       -7.2580098583       -3.3206091349
 H       -11.7774056480       -6.1733581870       -3.6315358619
 H       -11.5612089096       -5.5712362013       -1.3646387483
 H        -9.7639295287       -5.0136959637       -1.5859984847
 H        -7.4777162275       -7.2942495380       -1.8870420692
 H        -6.8461494408       -8.2354634872       -0.6600521540
 H        -4.7621790381       -7.5788723702       -1.7433485597
 H        -4.8787901600       -6.2488845762       -0.5338925912
 H        -2.6292636570       -1.9269309382       -2.5440429712
 H        -2.2047257824       -3.0943746930       -1.5642249918
 H        -4.4197075015       -1.2697563161       -1.0358853058
 H        -2.7960655945       -1.3263337631       -0.2955842574
 H        -7.7680819116       -2.0256756730        1.8610384405
 H        -7.4316193347       -2.9172360290        0.3692112052
 H        -8.3945378146       -0.0051082584        0.2597155314
 H        -9.6568012622       -1.1324815912        0.4868142497
 H        -8.9293107250        1.0578195052       -5.0085709443
 H        -9.6292161132        1.3666873102       -3.4632919418
 H       -11.8447080546        1.4137632488       -4.4789601991
 H       -11.5895508345       -0.2172769519       -5.3158679999
 H        -9.8696235627       -0.8984133170       -7.3611520804
 H       -10.5941900818       -1.1808097588       -8.9789594676
 H       -10.9597635656       -2.1545674223       -7.5650252927
 H       -14.0160898134        1.0678262888       -6.7702502761
 H       -13.6553806465        2.0443949958       -8.3095208041
 H       -13.4824531828        2.7279874149       -6.6376658369
 H       -10.4959711338        1.3351540981       -9.2995902165
 H       -11.0728825747        2.9337062790       -8.7603891449
 H       -12.0958083450        1.7462929040       -9.5925567462
 H       -11.8835303077       -1.9503729323       -2.4898038580
 H       -10.9372083853       -2.6754238741       -1.3191620959
 H       -10.5080712133       -2.9683468265       -2.9684426585
 H       -11.4848968305        0.4731601127       -2.1494791568
 H        -9.8773113460        0.9960977665       -1.4698945975
 H       -11.1809637420       -0.1136933448       -0.6827524815
 H        -5.7147600515       -2.4652356389        3.4840961418
 H        -4.4284023636       -3.5589030373        2.8689931525
 H        -6.0892127826       -3.6964595255        2.2312449965
 H        -3.0909619695       -1.4109740753        2.7263768049
 H        -4.3823767725       -0.2660369615        2.7486133199
 H        -3.4695129950       -0.3316755544        1.3584086462
 H        -2.7046581064       -6.6037699866       -2.8198813583
 H        -2.8568351133       -5.6000503179       -1.2965796989
 H        -1.8116424474       -5.1168191027       -2.7319553675
 H        -4.0606265591       -6.3432801609       -4.5483622188
 H        -3.2866014506       -4.8771293368       -5.2287800276
 H        -5.0922893199       -4.9001715068       -4.9494351172
 H       -10.0496026404       -4.9393098764        0.9812255537
 H        -8.7561330733       -5.2975865410        2.1642198199
 H       -10.3751216738       -6.2079967949        2.0240350862
 H        -8.4082187447       -8.8422316109        0.5352569839
 H        -9.7547293682       -8.4480142191        1.4538675910
 H        -8.1986173396       -7.8036865505        1.9033804492
 H       -11.9395398023       -4.3131063721       -6.9426212090
 H       -11.4549429208       -3.5456609616       -5.4595629416
 H       -12.4757517685       -4.9503095996       -5.5127004278
 H       -11.2438763496       -6.8802986467       -7.1436114790
 H       -11.8557845085       -6.9071046011       -5.6057986886
 H       -10.2062935806       -7.5520456693       -5.9758528365
 H        -6.1363935922       -0.9827225208       -7.4650914004
 H        -5.5296136590       -0.7517590243       -9.1697706459
 H        -4.4825592395       -1.2591217045       -7.7478992395
 H        -7.3519148251       -3.6644004871      -10.0213038455
 H        -6.7579256708       -2.1650648404      -10.6348879843
 H        -7.8307062342       -2.1409033974       -9.1986068857
 H         0.4305383155       -5.7067587366      -11.7669183481
 H         0.9850826032       -4.6680231165      -13.0026340179
 H        -0.8313742493       -5.1891398737      -12.5925113313
 H         1.7828639853       -2.2371842759      -10.8144726055
 H         2.3480118123       -3.6748919489      -11.7528181009
 H         1.6909654146       -3.9832806558      -10.0921996587
 H         0.2511915381        2.8209289190      -15.0002512387
 H        -1.2402096788        2.0526220721      -14.5724779723
 H        -1.0862113436        2.7684579053      -16.0796991625
 H        -1.1281719486       -0.8224166993      -17.1925100085
 H        -1.8836800895        0.6260668433      -17.4620894551
 H        -2.2168736050       -0.0664945706      -15.9691115844
 H         2.1527954019       -1.0993495889      -21.6250745638
 H         2.1301069024        0.5433747414      -21.8877740726
 H         1.3068664373       -0.0940244549      -20.5043095925
 H         3.1396040446       -2.1599617230      -19.6602434367
 H         2.5720463200       -1.2289693872      -18.3808190632
 H         4.2726744445       -1.3239651700      -18.5452744019
 H         8.5130382489        0.8019839000      -22.9402600546
 H         9.8491674190        1.6307588081      -21.9774962723
 H         9.4575529946        2.2780415163      -23.4748510908
 H         9.5920598026        3.9234873554      -21.5624376819
 H         8.7426814624        3.1589161158      -20.1996611552
 H         8.1268471839        4.6556500840      -20.7505320506
 H         2.4784017074        4.0736769404      -27.1076243921
 H         2.2671533907        3.2649250832      -25.5573134470
 H         3.5084374486        2.7770572522      -26.7320999015
 H         4.7587987279        4.7571305404      -28.0395019593
 H         5.9807240588        4.1989067630      -26.7149568724
 H         5.5348871413        5.8498023230      -26.8943970762
 Na       -7.2660612776       -3.1472337455       -4.1461762150
 Na        4.2880935836        2.6656335778      -21.8381642486
