232

 C         3.0214448679        6.9646702217      -27.2782499401
 C         3.1400554528        6.0997017030      -25.9327261499
 O         2.6823335006        6.5298705857      -24.9227732375
 C         3.9555709015        4.8068705278      -25.9055805579
 C         4.6547908888        4.6323998621      -24.4947643198
 O         4.1172331717        3.8520330518      -23.7072706283
 C         5.8608363998        5.3932506539      -24.1272412121
 C         6.6692740978        4.8431901912      -22.9545763873
 C         7.1990298412        3.4620488834      -23.0318537145
 O         7.1671543386        2.8455180598      -24.0902536742
 C         8.0095660139        2.5825449467      -21.8976117648
 C         6.9994711357        1.8713226399      -21.0131010622
 O         6.2230904588        2.5753053847      -20.2772692591
 C         7.2127757777        0.3666932634      -20.6074682719
 C         5.9579993961       -0.0211867456      -19.8450713559
 C         4.6997725346        0.0871526550      -20.7332649371
 O         4.9009168727        0.5355360573      -21.8927501719
 C         3.3547346703        0.0839946324      -20.0718354505
 C         3.2107636866        1.4656018705      -19.3672383689
 O         3.1667289494        2.4586502212      -20.0670454237
 C         3.2069470478        1.5696243188      -17.8274547094
 C         1.8412234294        2.1948820142      -17.2343331001
 C         0.7433962660        1.1840151081      -17.4075872962
 O         0.5195378615        0.6769120380      -18.5025031764
 C        -0.2452774628        0.8389589314      -16.2701508737
 C         0.6285546606        0.0166537800      -15.1047190309
 O         1.7469403966        0.3508920061      -14.8525855581
 C        -0.0259158525       -1.2854830425      -14.6071055263
 C         0.6795879363       -1.9791091180      -13.4114244580
 C        -0.3218145999       -2.4756193868      -12.3491501029
 O        -1.5192473622       -2.2050939481      -12.3658644739
 C         0.1790172749       -3.5558989205      -11.3394787839
 C        -0.7940324975       -3.5981768720      -10.1672598546
 O        -0.4194078288       -3.3963789293       -9.0185122234
 C        -2.2993180721       -3.9311789295      -10.4900524077
 C        -3.3079434610       -2.9368442815       -9.8920268622
 C        -4.5966344956       -3.6533549384       -9.4462979755
 O        -4.8605261176       -4.8444272279       -9.7161755973
 C        -5.8693073524       -2.8363680796       -8.8315448162
 C        -6.3948895935       -3.6509967432       -7.5283842461
 O        -6.4162320235       -2.9955666127       -6.4688739483
 C        -6.9222571896       -5.0187713143       -7.7883896215
 C        -7.8778225156       -5.7132426594       -6.7468381748
 C        -9.2369581238       -4.9844435590       -6.7410369094
 O        -9.3659241589       -3.9830659075       -7.4055992108
 C       -10.4420911092       -5.3562431760       -5.6964052623
 C       -10.0140944219       -5.2953719469       -4.1931204578
 O        -9.1096227352       -4.5365740450       -3.9266099853
 C       -10.7606669259       -6.1471452073       -3.2073452914
 C       -10.6530953866       -5.7501039038       -1.7297939080
 C        -9.8054991973       -6.8619774691       -0.9888814599
 O        -9.6940165461       -7.9550045479       -1.5477197772
 C        -9.0126405207       -6.6054233051        0.3518014657
 C        -7.5025380944       -6.2577216329       -0.1153867328
 O        -6.9954697143       -5.2206735596        0.3829105335
 C        -6.7460437439       -7.2373344507       -0.8650789883
 C        -5.3177423712       -6.6035889615       -1.3227372318
 C        -5.4131217909       -5.5616191281       -2.3640332263
 O        -6.5154953361       -5.2157188012       -2.8834443262
 C        -4.1974371012       -5.0281964241       -3.0254361954
 C        -4.1638906108       -3.4758403753       -2.7448999820
 O        -5.1011359095       -2.7913732478       -3.1352208841
 C        -3.0638574756       -2.7728793144       -1.8989189173
 C        -3.6670557141       -1.9249669488       -0.8072719350
 C        -4.0893596030       -2.7964686033        0.3741485264
 O        -3.8078464527       -3.9630272866        0.4150209575
 C        -4.9162955637       -2.0219179900        1.5597131098
 C        -6.1165152823       -1.2264766885        0.8497221876
 O        -5.9227879924       -0.1255285027        0.3234568537
 C        -7.6009663395       -1.8892922145        0.8592622199
 C        -8.6336060445       -1.0355046855        0.0770589387
 C        -8.5696232715       -1.3716622624       -1.3643760838
 O        -7.6696795949       -2.0478709686       -1.8230926528
 C        -9.8734984340       -1.0191923644       -2.1787073754
 C        -9.4679292420       -0.6665962052       -3.5888549746
 O        -8.9593832689       -1.5501713384       -4.3271652623
 C        -9.7465133941        0.7345991741       -4.1829191319
 C       -11.0812716319        0.8420498275       -4.8805490143
 C       -11.0438168746        1.6176782298       -6.2727018298
 O       -10.2138964316        2.4726857437       -6.3641664839
 C       -11.9525757085        1.2073869616       -7.4416405531
 C       -12.0207959232       -0.3297906139       -7.4854908555
 O       -13.0769539796       -0.9306727527       -7.3181775140
 C       -10.7608385811       -1.0980035092       -7.9137786492
 C       -13.2839930425        1.8821584083       -7.1921342730
 C       -11.2383272976        1.8360055774       -8.7228267048
 C       -10.8094626833       -2.1905731160       -2.1544333438
 C       -10.6086074813        0.1148039093       -1.4930990363
 C        -5.3463375028       -3.0324111266        2.6963829552
 C        -3.9815172841       -0.9997280486        2.1319290696
 C        -2.8667633708       -5.7039929782       -2.5240787288
 C        -4.2607799305       -5.2029529475       -4.5794827387
 C        -9.4753170043       -5.5200992524        1.3493047553
 C        -8.7755772433       -8.0152815003        1.2053513195
 C       -11.5677757833       -4.3009372301       -5.8852510222
 C       -10.8521668946       -6.8797409609       -6.1492354123
 C        -5.3942144909       -1.3855405839       -8.3344866664
 C        -6.9994141919       -2.5440931978       -9.8838545187
 C         0.0411277245       -4.8722075077      -12.1076269120
 C         1.7180223434       -3.2624266057      -10.8983690753
 C        -0.6698114590        2.1099706890      -15.5288021417
 C        -1.4620662115        0.0871712500      -16.7034478924
 C         2.2840193979       -0.0711775377      -21.1794679225
 C         3.3119007715       -1.1527098842      -19.1110741950
 C         9.0441733066        1.6964370357      -22.5847786951
 C         8.6884054012        3.7841508294      -21.0887383725
 C         3.0396793708        3.5600728616      -26.1821497113
 C         5.1605143129        4.8318431664      -27.0099010988
 H         2.3394664222        6.4530160582      -27.9646348094
 H         3.9650979446        7.0166430265      -27.7468192805
 H         2.6077423436        7.8887699329      -26.8647796859
 H         5.4934385183        6.3383717273      -23.7257840930
 H         6.4698875464        5.6747848140      -24.9247233119
 H         6.1373461588        4.8768437138      -22.0133549905
 H         7.5591348814        5.5560327825      -22.9246311780
 H         8.0707258265        0.4217547264      -19.9555551381
 H         7.4209615872       -0.3865597972      -21.3877127272
 H         5.8430841189        0.5458717621      -18.9120789384
 H         6.1682088099       -1.1800563222      -19.5385181032
 H         4.0223439332        2.2449583720      -17.6380703249
 H         3.3921596180        0.6344891464      -17.3535170995
 H         1.6382946612        3.2065753423      -17.6067137434
 H         2.0041276251        2.2919468660      -16.1963612691
 H        -0.0134222418       -2.0514779906      -15.4383406405
 H        -1.1066117296       -1.1493322480      -14.3519879807
 H         1.2481574375       -1.2535358719      -12.9427332736
 H         1.3677991281       -2.7717511653      -13.7549972590
 H        -2.5294354406       -4.8818402013      -10.0568934984
 H        -2.4355914538       -4.1377748278      -11.5639967063
 H        -3.6308287278       -2.0962295209      -10.5694741907
 H        -2.9124764371       -2.3141229912       -9.0708833122
 H        -6.1284376426       -5.6889657490       -7.9833423286
 H        -7.5418903738       -4.8912254441       -8.6819650966
 H        -7.4417295688       -5.6671668628       -5.6493519691
 H        -8.0272463438       -6.8238101464       -6.8373351694
 H       -10.3053005354       -7.1006766057       -3.2565394283
 H       -11.7410761584       -6.2556189777       -3.6573746296
 H       -11.6944174366       -5.8793182546       -1.3843843974
 H       -10.1881426515       -4.7349061251       -1.4840884574
 H        -7.2477742152       -7.7789991267       -1.7347286030
 H        -6.4981400869       -8.0893850000       -0.2081430965
 H        -4.6223018745       -7.4473240959       -1.6490469350
 H        -4.8178284281       -6.1542669486       -0.4593263474
 H        -2.4215267973       -2.1701007887       -2.5133400892
 H        -2.3497093958       -3.4151871794       -1.3641165909
 H        -4.5357717721       -1.3824910908       -1.2322772265
 H        -2.8380961598       -1.3326020474       -0.4945573982
 H        -7.9157952901       -2.0533170991        1.8913340313
 H        -7.5212102477       -2.8441715666        0.3799159145
 H        -8.5702732000        0.0524978689        0.3241455652
 H        -9.7072804604       -1.1943679400        0.3998548613
 H        -9.0044978813        0.7679235857       -4.9662512820
 H        -9.5463121160        1.5486059491       -3.4387605881
 H       -11.8730744970        1.4314529022       -4.3359230701
 H       -11.5629201887       -0.0800656095       -5.2604583369
 H        -9.8847960936       -0.5474168566       -7.6939123214
 H       -10.8110710316       -1.3186579833       -8.9392582515
 H       -10.5447652786       -2.0511935722       -7.3400196581
 H       -13.9639706800        1.1427607220       -6.6049573471
 H       -13.6561760260        2.1946145386       -8.1632166308
 H       -13.1725703140        2.7568608088       -6.5295640532
 H       -10.2637836009        1.4212979386       -8.9730775424
 H       -11.1334832741        2.9161510832       -8.4495395969
 H       -11.7958338791        1.5936435091       -9.6482616363
 H       -11.8490696937       -1.8103682998       -2.2254643955
 H       -10.8659368827       -2.7179391580       -1.1955001015
 H       -10.5428933184       -2.9413158741       -2.9497594842
 H       -11.5070665785        0.4604851369       -1.9997097925
 H        -9.9040026712        0.8678237298       -1.3579071757
 H       -11.0585844490       -0.2296653206       -0.5507460678
 H        -5.7572106452       -2.4620768209        3.5614451768
 H        -4.5586953702       -3.6442150708        3.0721775731
 H        -6.1582758712       -3.6840959786        2.2328608806
 H        -3.0868738308       -1.3242419264        2.5663564162
 H        -4.4505572696       -0.3755871142        2.9425871920
 H        -3.7087383547       -0.2237116257        1.4084481850
 H        -2.8594588721       -6.7091678256       -2.8711359818
 H        -2.8860279084       -5.6568745973       -1.4800362979
 H        -1.9461961792       -5.2458738655       -3.0336617704
 H        -4.2319932081       -6.2784377948       -4.6807917722
 H        -3.3918367576       -4.8010665145       -5.0710169125
 H        -5.2059053419       -4.7018632450       -4.9587047848
 H        -9.8653589384       -4.6117579360        0.7845376941
 H        -8.5530287784       -5.1712304323        1.9052175521
 H       -10.2921804200       -5.8121029017        1.9695087888
 H        -8.6002081753       -8.8859713154        0.5774641100
 H        -9.6472691139       -8.3164143726        1.8134893884
 H        -7.9737244444       -7.8964709427        1.9440976425
 H       -11.7553891805       -4.0099597081       -6.9261849898
 H       -11.4989472919       -3.3836012460       -5.3162861371
 H       -12.5221172533       -4.7487213405       -5.6662907402
 H       -10.7171708131       -7.0590707459       -7.2265436119
 H       -11.9009780361       -6.9658086733       -5.8836819223
 H       -10.2099622816       -7.5754280962       -5.6457228305
 H        -6.0297161358       -1.1377904090       -7.4652788355
 H        -5.4001131750       -0.6736331703       -9.1761694318
 H        -4.4039172358       -1.4406712704       -7.7850116130
 H        -7.4507606504       -3.3825853591      -10.4553791990
 H        -6.4429080538       -2.0058929939      -10.6538618671
 H        -7.7805095103       -1.8247415591       -9.4567440368
 H        -0.0390519336       -5.7559444291      -11.3745448679
 H         0.9068030803       -4.9506500698      -12.7336353948
 H        -0.9701284621       -4.9873902083      -12.4496065020
 H         1.7257512663       -2.3085860843      -10.3223506415
 H         2.3142065999       -3.1142855022      -11.9072974125
 H         2.0617349605       -4.1322763460      -10.3950547071
 H         0.1469135912        2.7125102637      -15.0699375732
 H        -1.3612905871        1.8906055968      -14.7185886219
 H        -1.1805849445        2.7748072528      -16.1743828601
 H        -1.2357115259       -0.8557660292      -17.1297992740
 H        -1.8938686328        0.5778770397      -17.5442510272
 H        -2.2439353537        0.1019529277      -15.9371218136
 H         2.5238630689       -0.9587085192      -21.6557762007
 H         2.2649446615        0.6188625290      -22.0740139662
 H         1.2994108067       -0.1748362219      -20.8222131325
 H         3.0525641897       -2.0413611757      -19.6796290866
 H         2.4348653672       -1.0182167753      -18.4667098310
 H         4.1373608165       -1.2366628259      -18.4386810549
 H         8.7371139514        0.7098192631      -22.8237254038
 H        10.0736305139        1.6962357839      -22.0559735258
 H         9.3622790091        2.1907485169      -23.5198974663
 H         9.3684448466        4.2897618035      -21.8196701222
 H         9.1303499763        3.2583512870      -20.1857797377
 H         7.8798387179        4.4063826123      -20.7241295576
 H         2.1694900284        3.7605465394      -26.8331310848
 H         2.5400645642        3.3120232588      -25.2383360561
 H         3.5183742694        2.6928652020      -26.5831689903
 H         4.8136126570        4.3898710761      -27.8596772502
 H         5.9419679976        4.3048663342      -26.4582013765
 H         5.5977393576        5.8025758748      -27.3732238497
 Na       -7.2941902622       -3.1878189984       -4.0508058995
 Na        4.3298161599        2.7192231265      -21.9338961176
