232

 C       -22.8166240906       -6.2399042208       -2.7722916651
 C       -21.3795642439       -5.7149551839       -2.9734338422
 O       -20.5623314428       -5.8185547767       -2.0647923389
 C       -20.9663157611       -5.1488504098       -4.3806353122
 C       -20.3031978876       -3.7746364555       -4.2352285322
 O       -20.0956906345       -3.2236564254       -3.1865024887
 C       -19.9154959588       -3.0822274335       -5.5450059526
 C       -18.7678254942       -2.0488992135       -5.4475179245
 C       -17.6336058932       -2.9042888673       -4.7788111175
 O       -17.6717675319       -4.1318004899       -4.7555842403
 C       -16.5315585543       -2.1906797174       -3.8138729623
 C       -16.4482832685       -2.9747539167       -2.4127027042
 O       -17.3650143176       -2.9112144882       -1.6426260691
 C       -15.1885959416       -3.7736556740       -2.0836243635
 C       -15.1090289080       -4.5556042381       -0.8099873961
 C       -15.6014746703       -5.9910557724       -1.1484327590
 O       -16.6624646299       -6.2168192170       -1.7146359907
 C       -14.7106923520       -7.1971859783       -0.7846317672
 C       -13.2737267654       -7.1383556152       -1.6301302130
 O       -13.1580137808       -6.2117318736       -2.3776907186
 C       -12.3677686901       -8.2946009287       -1.3851929283
 C       -11.1606295871       -8.2996963649       -2.3296085311
 C       -10.0122460050       -9.2608566879       -1.8734489839
 O        -9.6266109048       -9.3302704177       -0.7314013271
 C        -9.1636485007       -9.9514039129       -2.9997974107
 C        -7.8746217593       -9.0349646617       -3.2541611101
 O        -7.9712831535       -7.8529099674       -3.0083403551
 C        -6.6225534392       -9.6699211367       -3.7921142719
 C        -5.5882776002       -8.6106323994       -4.2380847257
 C        -6.3672142415       -7.7369649776       -5.2615214365
 O        -6.9545502271       -8.2868448736       -6.1760334963
 C        -6.1208440937       -6.2146523770       -5.2578718909
 C        -4.9286305705       -5.9147259669       -6.2007793371
 O        -3.9531768511       -5.5104376814       -5.6493321171
 C        -4.9549704687       -6.1583905617       -7.7182494232
 C        -4.4531419848       -4.9689665050       -8.4347328650
 C        -4.6507419747       -5.0649547672       -9.9254397820
 O        -4.5688336615       -6.1278142944      -10.5011138677
 C        -4.9773546427       -3.7614295009      -10.7535980218
 C        -3.5309089112       -3.0071519482      -10.7675432130
 O        -3.2120388637       -2.3505729325       -9.7885054895
 C        -2.6100701254       -3.3392845870      -11.8292620840
 C        -1.1260803775       -2.9289416966      -11.4347353344
 C        -0.2448187551       -3.1643177755      -12.7661462373
 O        -0.6402029558       -2.6651604329      -13.8054346327
 C         1.0915181596       -4.1122915308      -12.8644298130
 C         2.3922121669       -3.1323196168      -13.1222479742
 O         3.1106524718       -3.3261098670      -14.0942408302
 C         2.7637231790       -2.0029978569      -12.0799438425
 C         3.7822608507       -1.0416255569      -12.5573897451
 C         3.8270400839        0.1434996844      -11.6511693358
 O         2.8558845420        0.3854836972      -10.9666737488
 C         5.1388469461        1.1706969114      -11.5337743579
 C         4.9333556373        2.2677245932      -12.6746182279
 O         5.1920768133        2.0763678285      -13.8603660674
 C         4.0447238397        3.4921448688      -12.3676786986
 C         4.8905629811        4.7576828171      -12.0484714428
 C         5.7647713165        5.2843188746      -13.1738522579
 O         5.4767028072        5.0421548006      -14.3105907988
 C         6.7918032535        6.3334344504      -12.8485729662
 C         7.4256621493        6.8231361615      -14.2604836634
 O         7.4030061912        7.9752768984      -14.6450511458
 C         8.0580249604        5.7454062268      -15.1361038687
 C         8.1057125200        6.0906305168      -16.6390202760
 C         6.8040274917        5.7755666861      -17.4836756938
 O         6.2726442632        4.7074585270      -17.4980299517
 C         6.4482040639        6.8350863916      -18.6282858609
 C         7.8853850298        7.1874645086      -19.2926569101
 O         8.5512235517        8.0571406778      -18.7900555834
 C         8.3621343883        6.3010458417      -20.4546281900
 C         9.9114120843        5.9925290105      -20.4291210978
 C        10.0617896690        4.6032853842      -19.6964517497
 O        10.2436619757        4.5778724382      -18.4981793761
 C        10.1336332104        3.2766025854      -20.5247669956
 C         9.1104379650        2.2805459997      -19.9328401083
 O         8.0059721992        2.0066575277      -20.4425617835
 C         9.5979436575        1.7282594645      -18.4849736656
 C         8.5265410312        0.6888006599      -17.9361270012
 C         7.2339600059        1.3040176530      -17.2322748626
 O         7.4842552999        2.1807568509      -16.4404088412
 C         5.8042144750        0.6959086066      -17.5279018703
 C         4.8830250210        1.9585126417      -17.8854076754
 O         4.2343532364        2.4152358379      -16.9500378307
 C         4.5895848426        2.2803087666      -19.2606980814
 C         5.8572748633       -0.2783024977      -18.6946055194
 C         5.1960827241        0.0944255875      -16.2197722027
 C         9.9907675118        3.5582508114      -22.0424027789
 C        11.7000776441        2.8985032604      -20.4167934737
 C         5.3199121562        6.3091866726      -19.6317710357
 C         5.9290708412        8.1583858417      -17.9740257672
 C         6.1100045396        7.4193589989      -12.0807426672
 C         8.0407553836        5.7373033450      -11.9941900817
 C         5.1357377367        1.8249949614      -10.0986128139
 C         6.4751778740        0.3289141928      -11.8634062182
 C         1.3379292308       -4.8696482232      -11.4515380604
 C         0.8284488027       -5.0831514464      -13.9939900589
 C        -5.7055499901       -4.2655386545      -12.0229337170
 C        -5.9392394213       -2.6818819921      -10.1150037360
 C        -7.5122462393       -5.4986296518       -5.6042149311
 C        -5.8313303860       -5.7969449900       -3.7511273535
 C        -8.7464004931      -11.3291786074       -2.3905478735
 C        -9.8134834342      -10.0629588939       -4.3629512082
 C       -14.5542549940       -7.0541886442        0.7655794708
 C       -15.3865104741       -8.5595085403       -1.2169567709
 C       -15.1337228667       -2.2496197409       -4.5847150613
 C       -16.8699875278       -0.7141699274       -3.5832742980
 C       -19.9992751257       -6.2825785994       -4.9796955768
 C       -22.1812889786       -5.0465597097       -5.2735691671
 H       -22.9390573690       -6.9678203960       -3.5894565105
 H       -23.5503653322       -5.3924248600       -2.9919910676
 H       -22.9817230265       -6.7090704679       -1.8308916558
 H       -20.8218664196       -2.5557715156       -5.9287292429
 H       -19.6757436732       -3.8244622246       -6.3146360519
 H       -18.9790406331       -1.2181129076       -4.7325971399
 H       -18.6294451221       -1.7069545432       -6.4705855478
 H       -14.2642556075       -3.1714031350       -2.1718619570
 H       -14.9583743217       -4.4700453301       -2.8803931576
 H       -15.7971580938       -4.1618207367       -0.0921333723
 H       -14.0853841961       -4.6485732488       -0.3114948980
 H       -12.8457145662       -9.2638645693       -1.3642005859
 H       -12.0449468318       -8.2158303234       -0.3566949010
 H       -10.6718685205       -7.3680489594       -2.3549912478
 H       -11.3256061104       -8.6575328151       -3.3092233255
 H        -6.8809985689      -10.3431311064       -4.6415886477
 H        -6.1354803378      -10.3892019685       -3.0812335556
 H        -4.6532727779       -9.0516698276       -4.6799371504
 H        -5.2235503248       -8.1019734466       -3.3834544054
 H        -6.0187619337       -6.2377209107       -7.8669998111
 H        -4.5526113565       -7.0307904608       -8.0720357592
 H        -3.3551393317       -4.9220509103       -8.3481510287
 H        -4.8788025197       -4.0684000930       -7.9479450574
 H        -2.7140724439       -2.7682680750      -12.7169500127
 H        -2.6073646015       -4.3794747064      -12.1799834648
 H        -0.6420613812       -3.5157016204      -10.7288357699
 H        -1.0518223103       -1.9052322006      -11.2161812435
 H         3.1140267859       -2.3469520658      -11.1253023637
 H         1.8487106898       -1.5097034459      -11.9145372982
 H         3.6257406557       -0.6639963622      -13.5908010309
 H         4.7877383606       -1.5005272344      -12.6536608622
 H         3.1768113147        3.2621152094      -11.7244674872
 H         3.5551808793        3.6329578533      -13.3438753010
 H         5.5890862997        4.5019528837      -11.2134646370
 H         4.3451661555        5.7033861894      -11.7400389863
 H         7.4671170252        4.8401430049      -14.9370605947
 H         9.0696590448        5.6330418360      -14.8454498735
 H         8.8255404489        5.3893484804      -17.2757748397
 H         8.3302049047        7.1152046695      -16.8258277638
 H         8.0593928174        6.9834625544      -21.3039635854
 H         7.7567484942        5.4364193401      -20.6175367545
 H        10.5465500158        6.6735478206      -19.8535709692
 H        10.3166350575        6.0023309311      -21.4414897370
 H         9.7711386149        2.6883334319      -17.9120009229
 H        10.5140876381        1.0147346830      -18.6837365102
 H         9.0054995979       -0.0302290063      -17.2743851558
 H         8.2545855258       -0.0511886622      -18.6808861483
 H         4.3398544180        1.2514334636      -19.6038658877
 H         5.3824326656        2.7752083634      -19.8803543941
 H         3.6592072969        2.7897538794      -19.3294839067
 H         4.8477997228       -0.7248692644      -18.8833554483
 H         6.4793518246       -1.1881158134      -18.4356108768
 H         6.2656768568        0.1830894007      -19.5923657458
 H         4.1844950139        0.5962991312      -16.2252866373
 H         5.7690637471        0.2195364313      -15.2878059544
 H         5.1137679801       -0.9738768090      -16.2445289527
 H        10.0459213165        2.6997685499      -22.6237306124
 H        10.8311319391        4.2251335723      -22.2356264614
 H         9.1668318042        4.1408187603      -22.3730979805
 H        11.9897889645        2.0313444771      -21.0102915819
 H        11.9683387691        2.6234797363      -19.3594859343
 H        12.2636328515        3.8342098343      -20.6844342641
 H         4.3835015569        6.1931937572      -19.0501615080
 H         5.6730380466        5.2802477646      -19.8573994367
 H         5.3551039895        6.9320474886      -20.5080550498
 H         6.4726459691        8.4649077508      -17.1196643551
 H         4.9662329832        7.9472830505      -17.4987051479
 H         5.8933146103        8.9709569449      -18.7105997902
 H         6.5911509318        8.4208205755      -12.2840286446
 H         6.1902899188        7.2861479129      -11.0298609722
 H         5.1366808057        7.7113957604      -12.4798099302
 H         7.6167391385        5.5256668448      -11.0216233470
 H         8.7826327302        6.4242522776      -11.9164669216
 H         8.3608281813        4.8042928298      -12.4469637963
 H         5.6672671401        2.7847587494      -10.1865418980
 H         5.6971571995        1.1267643956       -9.3827827466
 H         4.2218967477        2.1911942985       -9.7233891877
 H         6.4232703622       -0.6327862005      -11.3779552308
 H         7.2427664921        1.0018629275      -11.5601507149
 H         6.4520824077        0.3313536690      -12.8925188703
 H         1.8660788370       -4.2419119444      -10.8075787180
 H         1.8796802438       -5.7941538301      -11.6273799358
 H         0.3937774844       -5.0751913921      -10.9695753873
 H         0.6159843063       -6.0839433630      -13.5480973897
 H         1.7283410266       -5.0997740920      -14.6396690706
 H        -0.0571935132       -4.7821262596      -14.6186738754
 H        -6.3443275561       -5.0374862527      -11.6810976829
 H        -5.1019752431       -4.6673733797      -12.7967235456
 H        -6.2140225795       -3.4725104075      -12.5272152563
 H        -6.4292518091       -2.0078163863      -10.7844951797
 H        -5.3460168962       -2.1860438966       -9.3867347298
 H        -6.7504184104       -3.1102971930       -9.6037572056
 H        -7.7460441361       -5.6142836287       -6.6970642920
 H        -7.5410904232       -4.4482012877       -5.4330040471
 H        -8.3079777238       -6.0169936516       -4.9992713598
 H        -6.4982236132       -6.3878613596       -3.0967830277
 H        -6.0722068396       -4.7591050767       -3.6562276952
 H        -4.7768897363       -6.0085443872       -3.5494831572
 H        -9.4068333576      -12.1128613733       -2.2372000549
 H        -8.3995264380      -11.1492288298       -1.3602455441
 H        -7.8993248830      -11.6978945077       -3.0247836342
 H       -10.6450549554      -10.8009977291       -4.4145837396
 H        -9.0848574642      -10.4726772221       -5.0160089152
 H       -10.3383758755       -9.2268643340       -4.7920740958
 H       -14.2671959768       -8.0347756697        1.1956207040
 H       -15.4192745432       -6.7057012723        1.2624975296
 H       -13.7094363731       -6.4052573209        0.9828536872
 H       -15.5729884401       -8.5836200197       -2.2757067959
 H       -16.2580700192       -8.7502132711       -0.7094251730
 H       -14.7158401493       -9.3755849031       -1.0651567275
 H       -14.6582657500       -3.2763523167       -4.6772699515
 H       -14.5172044236       -1.4829531388       -4.1496819111
 H       -15.3918989457       -1.9375511788       -5.5590115864
 H       -17.4465029252       -0.5006015825       -2.7338194785
 H       -17.3755649172       -0.3373538730       -4.4849177528
 H       -15.9355505846       -0.1692950318       -3.3056183683
 H       -19.1113860342       -6.5955577814       -4.4287068101
 H       -19.4712705566       -5.8976067847       -5.9074329651
 H       -20.5847181319       -7.1650356040       -5.2485324917
 H       -21.8669044515       -4.4847890291       -6.2241399911
 H       -22.9335612751       -4.3963334140       -4.8861859959
 H       -22.6133698136       -5.9013684909       -5.6941278560
 Na      -18.5320331265       -4.7450679727       -2.2027900053
 Na        5.6867061167        3.1914993916      -15.7238941521
