232

 C         3.8350516354        6.9424747721      -27.8039338603
 C         4.0124292627        6.2826604058      -26.4647645740
 O         3.8175559355        6.8479598868      -25.3947795717
 C         4.3054800043        4.6345299016      -26.5628619435
 C         4.8218374048        4.3844148605      -25.1003804065
 O         4.3199510267        3.7369437184      -24.1683367635
 C         6.2068321443        5.0382024428      -24.9323858059
 C         6.7754170621        4.8283396345      -23.4501582531
 C         7.3741500695        3.4435453624      -23.3342164769
 O         7.2591765974        2.7218536432      -24.3084753416
 C         8.1130344430        3.0273396736      -21.9970964618
 C         6.9286495357        2.3029384350      -21.0528530514
 O         6.0002797794        2.9929776717      -20.6222054820
 C         6.9728870822        0.8049663238      -20.7108961898
 C         5.6678522286        0.2739099472      -20.0721954644
 C         4.4370385980        0.7742355249      -20.7247493355
 O         4.4323182832        1.2677654639      -21.8392134822
 C         2.9983203056        0.6212505677      -20.0056267096
 C         2.8598365125        2.0147186042      -19.1825374874
 O         2.7216800978        3.0557014070      -19.8070561939
 C         3.0558265404        1.9422259395      -17.6265564374
 C         1.7484195438        2.2237417858      -16.8001303821
 C         0.6018823639        1.3875710005      -17.3644875093
 O         0.5509797477        1.2058741728      -18.5906553686
 C        -0.4040638400        0.6859440879      -16.3859339620
 C         0.3937886872       -0.3580237934      -15.4589256749
 O         1.5890965861       -0.3647274894      -15.4401409777
 C        -0.4632704554       -1.3129181219      -14.6143222628
 C         0.2998717666       -1.7389766641      -13.3693923391
 C        -0.6078494096       -2.7612604732      -12.4884711456
 O        -1.7343273716       -3.0118741067      -12.8828597790
 C        -0.0220108842       -3.5656755985      -11.2031292518
 C        -1.0188308892       -3.2015619248       -9.9690546417
 O        -0.5879208116       -2.6420377080       -8.9702038623
 C        -2.4692806592       -3.7875785171      -10.0245580915
 C        -3.4107342224       -3.0744329016       -9.0225019244
 C        -4.6725742611       -3.9374561823       -8.9021297609
 O        -4.7846400296       -5.1381288110       -9.2594031359
 C        -6.0527740868       -3.3091207083       -8.4464310146
 C        -6.6759157505       -4.2104608434       -7.2850800395
 O        -6.6861561707       -3.6873756554       -6.2170703490
 C        -7.3024324151       -5.5257682331       -7.6904667822
 C        -8.3161393767       -5.8323735731       -6.5498220900
 C        -9.6288001932       -5.0873276501       -6.7509148711
 O        -9.7026964941       -4.3154482107       -7.6907066322
 C       -10.7991049587       -5.5210372052       -5.8610209586
 C       -10.2710904592       -5.3443905245       -4.3089716872
 O        -9.5821659661       -4.4505638724       -3.8689369682
 C       -10.8302807587       -6.3244886170       -3.2261523529
 C       -10.4485535387       -5.9015432383       -1.7830995022
 C        -9.3675513278       -6.8302035323       -1.1613743362
 O        -9.0795558283       -7.9520152379       -1.6105966554
 C        -8.8472034822       -6.3898939265        0.2588521665
 C        -7.2634290133       -6.0662073652        0.2392161283
 O        -6.8270788814       -5.0628345505        0.8018243182
 C        -6.2190061512       -7.0745479320       -0.1643776090
 C        -4.9951214521       -6.4381370655       -0.9084735199
 C        -5.4427005723       -5.6136746031       -2.1855369151
 O        -6.6091938096       -5.4377985485       -2.4553701410
 C        -4.2478913233       -5.0788109153       -3.1839955025
 C        -4.1176395433       -3.5228666772       -2.8794745729
 O        -5.0255430179       -2.7639750884       -3.1521994860
 C        -2.7557633349       -2.9187933920       -2.3635056535
 C        -2.9295715395       -1.9675026124       -1.2020723932
 C        -3.4201534634       -2.6637341091        0.0606244380
 O        -3.5292819688       -3.8603530875        0.2177475040
 C        -4.2441940900       -1.8040828214        1.1051575236
 C        -5.5940076385       -1.5024332667        0.4386741795
 O        -5.6337996045       -0.6449737242       -0.4324113728
 C        -6.9698635395       -2.1663310041        0.9846287114
 C        -8.2528928835       -1.4972579310        0.4181026431
 C        -8.6293698705       -1.8587274109       -0.9714457703
 O        -8.1062960927       -2.8609099267       -1.4964147524
 C        -9.6291263305       -0.9559651195       -1.6896532556
 C        -9.1916841333       -0.4988411210       -3.0763609526
 O        -8.4268968742       -1.0727834397       -3.7357969237
 C        -9.7508384542        0.8572493545       -3.6553511881
 C       -10.8878587211        0.4457617373       -4.6891957759
 C       -10.9311745026        1.2824755099       -5.9950121025
 O       -10.1562141789        2.1985280511       -6.2442255435
 C       -12.0542137661        0.8927743685       -7.0221993116
 C       -11.9089380485       -0.6529831017       -7.5135614172
 O       -12.6124506304       -1.5130376298       -6.9950029350
 C       -10.8138529401       -0.9902876858       -8.4513349332
 C       -13.3695244274        1.1356397953       -6.2571007128
 C       -12.0224662501        1.9532091485       -8.2327670413
 C       -10.9552984628       -1.8324901864       -1.9578910290
 C       -10.1174873687        0.1858636285       -0.7479212987
 C        -4.3073713795       -2.6530871616        2.4480946289
 C        -3.5497252007       -0.4816776484        1.3403349384
 C        -2.8535829471       -5.7216881635       -3.1101126106
 C        -4.6824548784       -5.3633970453       -4.6146932312
 C        -9.6195349635       -5.0817188014        0.7248916016
 C        -8.9045056803       -7.3811152050        1.3986510277
 C       -12.0381810335       -4.6888245661       -6.0770642768
 C       -11.2176183839       -6.9400611590       -6.1742927516
 C        -5.7645995227       -1.8939733457       -7.9463481418
 C        -6.7983262833       -3.2499431631       -9.7890312621
 C        -0.1195550750       -5.0937101319      -11.5675128504
 C         1.4268374584       -3.2659014909      -10.7288130719
 C        -0.9500535140        1.9143813790      -15.5969793575
 C        -1.5481105551        0.0163240121      -17.2169882324
 C         1.8541457401        0.5445480507      -21.0887444510
 C         2.8929820932       -0.6282957684      -19.0712896821
 C         9.1896783786        1.9389244409      -22.2655197445
 C         8.6051814015        4.1561630542      -21.0766966793
 C         2.9338989769        4.0994276638      -26.7319331133
 C         5.2600874885        4.1928690446      -27.7122206928
 H         3.2093913852        6.3282548289      -28.3780119923
 H         4.8494647437        7.1653507318      -28.1416339365
 H         3.3607694434        7.9057753543      -27.6003917854
 H         6.2939932165        6.0149702429      -25.2484392816
 H         6.9178660275        4.4804956878      -25.5945581726
 H         6.0442478286        5.0060440779      -22.6094655997
 H         7.5872024615        5.5625489542      -23.2670851465
 H         7.8212438501        0.5463458939      -20.0473725254
 H         7.1109398576        0.2424100275      -21.7744732913
 H         5.5380685117        0.5400580156      -19.0064046267
 H         5.6362229596       -0.8224603787      -20.2310061520
 H         3.7636987876        2.7305109254      -17.4185815497
 H         3.5459954000        1.0289742400      -17.3243878673
 H         1.4738015379        3.2024418810      -17.1233961301
 H         1.9453690063        2.2200609121      -15.7390776453
 H        -0.7152380644       -2.1803383531      -15.2845986946
 H        -1.4531372273       -0.8893650637      -14.3309642521
 H         0.6297568826       -0.8684910526      -12.7966705208
 H         1.1878302196       -2.2356328151      -13.6744070439
 H        -2.3919823746       -4.8374834931       -9.7123680225
 H        -2.9799539557       -3.7462845577      -10.9553661357
 H        -3.7349027849       -2.1269183424       -9.4202496806
 H        -2.8498244612       -3.1382562015       -8.0533610131
 H        -6.4684964007       -6.1998922097       -7.8911199591
 H        -7.9244932417       -5.4063600138       -8.5675346002
 H        -7.8727133365       -5.5136145598       -5.6257769268
 H        -8.4168047403       -6.9361891497       -6.4328627150
 H       -10.5263696804       -7.2949149340       -3.5828318810
 H       -11.8997844271       -6.3628271471       -3.3332449572
 H       -11.3632607458       -5.8302658401       -1.1317945209
 H       -10.1233462284       -4.8283639346       -1.8145100874
 H        -6.6181723451       -7.8648162537       -0.8239742632
 H        -5.7958917871       -7.6143234658        0.7664076693
 H        -4.2718167867       -7.2355968134       -1.1352445817
 H        -4.4590619088       -5.6420962543       -0.3201942848
 H        -2.4233713597       -2.3255377966       -3.3101426381
 H        -1.9833379621       -3.6760366724       -2.0518459305
 H        -3.6381443248       -1.2135952903       -1.5688706267
 H        -1.9435571937       -1.4679519726       -0.9157166654
 H        -6.9326435464       -1.9935055695        2.0379936802
 H        -6.9952654187       -3.2535174988        0.8129322169
 H        -8.1027704071       -0.3873583952        0.4529312708
 H        -9.1516675810       -1.8354645869        1.0208308237
 H        -8.9029997268        1.4486418503       -4.1906884951
 H       -10.0371022610        1.6204746057       -2.9064181303
 H       -11.8260763697        0.2969442355       -4.2219934756
 H       -10.6459149255       -0.5718171175       -5.1044595774
 H        -9.9808109984       -0.3942402596       -8.3850211943
 H       -11.0818181580       -0.7807740594       -9.4754434969
 H       -10.7170222613       -2.1186343953       -8.4488783218
 H       -13.5263051115        0.2797755295       -5.5532022006
 H       -14.1296367910        1.0333014300       -7.0413522509
 H       -13.3250563377        2.1290612848       -5.7419581683
 H       -10.9971240827        2.3309481774       -8.2566748323
 H       -12.7104427123        2.7291580024       -7.9775240539
 H       -12.5289714658        1.5963528910       -9.1084777359
 H       -11.6050726461       -1.2181620142       -2.5266622042
 H       -11.4598310587       -2.1040733170       -1.0599606307
 H       -10.8440577032       -2.7158158267       -2.5325368519
 H       -11.0140689444        0.6030873268       -1.1255396444
 H        -9.4981741379        1.0045902867       -0.5325085174
 H       -10.5158323965       -0.2201517421        0.2191432187
 H        -4.9450777481       -2.1053500983        3.1461793768
 H        -3.3418232954       -2.8801300100        2.8951125229
 H        -4.7612551548       -3.6405922457        2.2203916193
 H        -2.4935616361       -0.5920278974        1.5095353685
 H        -3.8966036708        0.1207611237        2.2283136310
 H        -3.6312288188        0.2937705607        0.5661470745
 H        -2.7302515983       -6.7514749444       -3.5114620531
 H        -2.4614262043       -5.7452371846       -2.1289276910
 H        -2.1068838313       -5.0903034058       -3.6478280403
 H        -4.5875180827       -6.4226582441       -4.8390118548
 H        -3.8631384541       -4.8740370009       -5.2123134780
 H        -5.7098697836       -5.0537617917       -4.8804484667
 H        -9.3393801593       -4.2542020429        0.0334502925
 H        -9.1477669032       -4.7996500243        1.6924590411
 H       -10.6793332218       -5.2763464910        0.9087505218
 H        -8.7098461575       -8.3489414375        1.0496939967
 H        -9.9658595487       -7.3659488161        1.6582324755
 H        -8.2651103335       -7.2089818792        2.2467684290
 H       -12.4413606684       -4.9546453193       -7.0692494343
 H       -11.9504355092       -3.6053004705       -6.1206141143
 H       -12.8005786997       -4.9397813662       -5.3545937643
 H       -11.6424027427       -7.0003315854       -7.1666540399
 H       -12.0461388356       -7.2462993674       -5.5511271731
 H       -10.3602900891       -7.5646266409       -6.0212927644
 H        -6.5923608804       -1.3238606247       -7.5211427362
 H        -5.4113402026       -1.1619669463       -8.7046450179
 H        -4.8551237472       -1.8606231465       -7.2596822774
 H        -6.8476719490       -4.2100221253      -10.3262343822
 H        -6.3012775646       -2.5108703170      -10.3994028107
 H        -7.8422341023       -2.9484730019       -9.7455320121
 H         0.1649404913       -5.6116269734      -10.6201831140
 H         0.7208580374       -5.3543420838      -12.2300766793
 H        -1.0481464692       -5.2841885516      -12.1765876801
 H         1.4260338532       -2.3914874793      -10.0546986196
 H         2.0438445680       -3.0009548147      -11.7023176071
 H         1.9685833098       -4.0447071959      -10.2401814704
 H        -0.2813509924        2.5074228902      -14.9377428064
 H        -1.7154337752        1.6059532431      -14.8563848996
 H        -1.4881729163        2.6357693028      -16.1586510021
 H        -1.1915238912       -0.8238280425      -17.7379116144
 H        -2.1579539758        0.6746398642      -17.7894398999
 H        -2.2020866677       -0.4983445406      -16.5599054130
 H         2.1217927284       -0.1528665423      -21.8264763578
 H         1.5374620098        1.5571996177      -21.4262628452
 H         0.9973752313        0.1076135284      -20.6581217659
 H         2.9757783110       -1.5432827915      -19.6593835733
 H         1.8832423425       -0.6155557222      -18.5990904248
 H         3.6988980207       -0.5897445853      -18.3802030931
 H         8.8430108918        1.4324060452      -23.1420538786
 H         9.3312662241        1.0907854136      -21.5290285685
 H        10.1177333827        2.4530444597      -22.5420869996
 H         9.5038723948        4.5959271325      -21.6304899422
 H         9.0469233758        3.6468943426      -20.1555505925
 H         7.8107758247        4.8672494378      -20.7801728978
 H         2.6009961709        4.2817766644      -27.7834261623
 H         2.1942969204        4.4475638384      -25.9637694008
 H         2.9607247962        3.0367693835      -26.6090323137
 H         5.3869741709        4.6963998083      -28.6302146764
 H         4.9407886701        3.2178630628      -27.9991045205
 H         6.2546531368        4.1020015023      -27.1509439450
 Na       -7.5501284097       -3.3474937036       -3.8364920626
 Na        3.9298092343        3.6625618752      -21.8869867518
