232

 C         3.8794245164        6.9895575788      -27.8745758227
 C         4.0599023940        6.2725114021      -26.5322506334
 O         4.0843934658        6.8469761297      -25.4684965429
 C         4.2920243989        4.6385531128      -26.4856790922
 C         4.9696684073        4.3755831278      -25.1867779165
 O         4.2903131407        3.7746915215      -24.3089845513
 C         6.2717718481        5.0348608583      -24.9833767794
 C         6.7751227120        4.9553289403      -23.4978019241
 C         7.3847880705        3.4275902603      -23.3062157294
 O         7.4174039521        2.6896550555      -24.2380140578
 C         8.0275551703        2.9824943426      -21.9469461505
 C         6.8681957207        2.3626250881      -21.0573799459
 O         6.1216321226        3.1517177674      -20.6165785346
 C         6.8914183486        0.8515823346      -20.8675686509
 C         5.6621531672        0.4215806561      -20.0218018229
 C         4.3022819910        0.7711490217      -20.8249678211
 O         4.4402051104        1.2327906264      -21.9789963712
 C         2.9527537453        0.6550102291      -20.0278341530
 C         2.7768700224        1.8942137599      -19.1699246979
 O         2.8074305428        3.0321345075      -19.7241211997
 C         3.0050351569        1.9375663969      -17.6670380653
 C         1.7396126129        2.2438537827      -16.8887975212
 C         0.6248533357        1.3856629776      -17.3818819924
 O         0.4299261227        1.2653419224      -18.5644015440
 C        -0.4272588097        0.7336871721      -16.3317853954
 C         0.2219635631       -0.3716328860      -15.4965926733
 O         1.4226261017       -0.5115432501      -15.4496464371
 C        -0.6033821727       -1.3222364606      -14.5493170523
 C         0.2197681430       -1.7586752353      -13.2999034710
 C        -0.5070356715       -2.7745462965      -12.5162632396
 O        -1.6296172013       -3.0178093550      -12.9027842078
 C        -0.0473877329       -3.5544367825      -11.1968871775
 C        -0.9852408749       -3.2233089367       -9.9702360368
 O        -0.5739404424       -2.6027600325       -9.0524873191
 C        -2.4592431971       -3.6043228973      -10.0964494993
 C        -3.4578726118       -3.1170211941       -9.0255650827
 C        -4.6844373314       -3.9890959160       -8.8217982026
 O        -4.6696627729       -5.1666218951       -8.9826293786
 C        -6.0467777830       -3.2606955207       -8.4092032580
 C        -6.7761658573       -4.1274700722       -7.3145351828
 O        -6.8063321015       -3.7776852295       -6.1340927915
 C        -7.2956242552       -5.5203943452       -7.6575435913
 C        -8.3025589598       -5.9099909350       -6.5956989851
 C        -9.6435044793       -5.1578740887       -6.8078180437
 O        -9.7791674291       -4.3170439185       -7.6643453908
 C       -10.8078777588       -5.5093342219       -5.7616571178
 C       -10.3635408831       -5.2818930992       -4.2903945702
 O        -9.6641234752       -4.3802745976       -3.9767609418
 C       -10.8744761138       -6.3388957469       -3.2307627180
 C       -10.4113468047       -5.9886160017       -1.8429891084
 C        -9.4201021207       -6.9039684328       -1.1094594017
 O        -9.0295876080       -7.9227817912       -1.6161636956
 C        -8.8357871520       -6.3793164464        0.2560905324
 C        -7.2670951583       -6.1231484562        0.1953047085
 O        -6.8885704434       -5.1043601248        0.7255564928
 C        -6.1785502920       -7.1675321658       -0.3572497985
 C        -4.9665996277       -6.4330582055       -0.8230366946
 C        -5.2282300933       -5.6745036470       -2.1143331816
 O        -6.4039110095       -5.5135868581       -2.4094437759
 C        -4.1574085096       -5.0512458897       -3.1050433453
 C        -4.1748977782       -3.4641813239       -2.9674492432
 O        -5.1672756090       -2.8356517245       -3.1396037474
 C        -2.8024468665       -2.8675331301       -2.5473820700
 C        -2.9396782112       -1.9657790832       -1.2228550304
 C        -3.5763354609       -2.6821135179       -0.0186518341
 O        -3.6619607790       -3.9014433845        0.0704285840
 C        -4.2187993658       -1.7472280860        1.0750889115
 C        -5.5583209413       -1.3893754247        0.4459275794
 O        -5.6098879138       -0.5941632864       -0.5082928800
 C        -6.7983807423       -2.0391855976        1.0207409951
 C        -8.0723216263       -1.4536572020        0.4695624926
 C        -8.5485499440       -1.8750790577       -0.9975763766
 O        -8.1412258850       -2.8136230068       -1.5838707562
 C        -9.6750745359       -0.9471669320       -1.6668409265
 C        -9.0169580504       -0.4389577157       -3.0599476986
 O        -8.2835172361       -1.0982921519       -3.8040787003
 C        -9.6229868420        0.8729495665       -3.7268208784
 C       -10.7564905310        0.3812134612       -4.6691224454
 C       -10.8790565330        1.2081587592       -5.9678784553
 O       -10.0793286648        2.0931753955       -6.1844608248
 C       -12.1249115101        0.8723267606       -6.9754641305
 C       -11.9153207730       -0.6084830135       -7.5274644934
 O       -12.5186250063       -1.5097445236       -6.9765187274
 C       -10.8484041947       -0.8532171842       -8.5639876511
 C       -13.4875640535        1.0457496956       -6.1529927503
 C       -12.1317323140        1.8054590296       -8.2410702779
 C       -10.9047932734       -1.8346825492       -1.9998816096
 C       -10.2119568548        0.1706560290       -0.6996894222
 C        -4.0677393207       -2.5367117968        2.4174160849
 C        -3.4736904658       -0.4512411137        1.3094597853
 C        -2.8296323150       -5.8008505037       -2.9611345263
 C        -4.8186400215       -5.3389293118       -4.5408438464
 C        -9.5794854305       -5.1177380555        0.8034139828
 C        -9.0660381835       -7.5393956931        1.3255135376
 C       -12.0346608359       -4.6138065628       -6.1470265313
 C       -11.1096536389       -7.0266278647       -5.9620144877
 C        -5.9507670390       -1.8583620825       -7.7899439959
 C        -6.9261835665       -3.3225240158       -9.7191609064
 C        -0.2371086178       -5.0816259496      -11.4834778208
 C         1.3667273082       -3.2886743213      -10.6893329555
 C        -1.0045255438        1.8815839494      -15.5131211537
 C        -1.4948690960        0.1233129212      -17.2638162382
 C         1.7932601994        0.5508372870      -21.0554093213
 C         2.9974832604       -0.6181196373      -19.0716491014
 C         9.1617721736        2.0070168755      -22.3286587717
 C         8.5236722942        4.1578181480      -21.0540257181
 C         2.8221024729        4.0182346403      -26.7690201205
 C         5.2107415767        4.2053522190      -27.6369850463
 H         3.1199078411        6.3792414629      -28.4203461154
 H         4.8623636260        7.0634433505      -28.2538968860
 H         3.4934863892        7.9839799303      -27.7403379143
 H         6.1406138655        6.1177853429      -25.2139945639
 H         6.9851304239        4.6537076360      -25.7335453485
 H         5.8881129941        5.1295813338      -22.9136358832
 H         7.4323692901        5.8291215356      -23.2610442088
 H         7.8137926701        0.6773662918      -20.2146000971
 H         7.0137374891        0.2983466060      -21.7787379911
 H         5.6445849408        0.8662452166      -19.1065914291
 H         5.5974951175       -0.7127877507      -19.9483704512
 H         3.8746041928        2.6456376175      -17.5054195982
 H         3.3040251936        0.9411284888      -17.2469847179
 H         1.3534312702        3.2923367267      -16.9603040171
 H         1.9880346704        1.9906919046      -15.8862800000
 H        -0.8429004004       -2.0798045813      -15.2835689483
 H        -1.5506756660       -0.9398507368      -14.1717379829
 H         0.4126076765       -0.8968890626      -12.6755161125
 H         1.2730361377       -2.1319351814      -13.5646173713
 H        -2.5311170589       -4.7057087981      -10.1641039219
 H        -2.9324659036       -3.1689452313      -11.0285534962
 H        -3.8138263212       -2.1184928754       -9.3739008631
 H        -2.9816540215       -3.2011797250       -8.0582236299
 H        -6.3767369640       -6.1467424316       -7.7045529510
 H        -7.9047769813       -5.6613028609       -8.5753134461
 H        -7.9378922094       -5.6990184221       -5.6067104437
 H        -8.3653210715       -6.9066100701       -6.6784554837
 H       -10.4069066443       -7.2156497455       -3.6399671464
 H       -11.9620931897       -6.5928351563       -3.2366284998
 H       -11.2679569998       -5.7781918145       -1.2551128271
 H        -9.9684571182       -4.9895765070       -1.8904437422
 H        -6.6793082652       -7.8242851207       -1.1305683646
 H        -5.8418897152       -7.8003590195        0.4496467813
 H        -4.0990524962       -7.1125182764       -1.0076212899
 H        -4.6945330764       -5.7701365614       -0.0664749742
 H        -2.3153935303       -2.3550749609       -3.4121355231
 H        -2.1544935293       -3.7571476364       -2.1841030691
 H        -3.4715881563       -0.9790069333       -1.5676423236
 H        -1.9557705031       -1.7049530446       -0.7523179851
 H        -6.7497246150       -1.9403761355        2.1059959216
 H        -6.7560519778       -3.1004237042        0.7589690029
 H        -7.9768770356       -0.4038862173        0.4874966011
 H        -8.8582262413       -1.8230357024        1.1377650374
 H        -9.0267915779        1.6190479456       -4.2872591081
 H       -10.1046248265        1.5787587435       -2.9738457226
 H       -11.6765556957        0.3700590913       -4.1307628324
 H       -10.6283033725       -0.6344872020       -5.0115816970
 H       -10.0973141072       -0.0346365068       -8.5933979587
 H       -11.2655796671       -0.6333335202       -9.5257898408
 H       -10.5014421196       -1.8669186143       -8.6450339069
 H       -13.4281357714        0.3699917400       -5.2141865779
 H       -14.3119150161        0.7498767640       -6.7610568184
 H       -13.5242325492        2.0602275222       -5.8438907553
 H       -11.1105238466        2.0270837467       -8.4935071781
 H       -12.7749765530        2.7334751370       -8.0835260408
 H       -12.8069409731        1.3086858870       -8.9573738071
 H       -11.7813699134       -1.3198834759       -2.4192916023
 H       -11.2437904718       -2.3008001904       -1.0805222647
 H       -10.6621992756       -2.6814899620       -2.6954231631
 H       -10.9032765172        0.8376316842       -1.1652553606
 H        -9.4714290203        0.8006420836       -0.3247195670
 H       -10.7728376129       -0.1990763200        0.0910159709
 H        -4.4227283289       -1.8698521533        3.2270412527
 H        -3.0690076542       -2.8613808989        2.5913225985
 H        -4.6555567942       -3.5109538469        2.3871686582
 H        -2.5176188689       -0.6674212381        1.6857914330
 H        -3.9030696310        0.2170236709        2.0639925581
 H        -3.3280397530        0.2331352968        0.4956590688
 H        -2.9552993180       -6.7974372668       -3.2928147793
 H        -2.3705598537       -5.8475906001       -2.0040617565
 H        -2.0182181011       -5.4216995293       -3.6657412269
 H        -4.7944652624       -6.3946382010       -4.7857413504
 H        -4.1881942152       -4.8649584754       -5.2723024075
 H        -5.9070744212       -5.0210681650       -4.5832661265
 H        -9.3598649023       -4.1377785084        0.3313631240
 H        -9.1652100174       -5.0488759011        1.8456340170
 H       -10.5919131505       -5.4321943706        0.9240948370
 H        -8.4690778166       -8.4059213297        0.9928343833
 H       -10.1143659029       -7.8830134267        1.3797084837
 H        -8.6462060077       -7.2699688352        2.2823890663
 H       -12.3152553656       -4.9021024605       -7.1703620277
 H       -11.7875163908       -3.5543571662       -6.2458222543
 H       -12.9240723746       -4.7206809756       -5.5338764210
 H       -11.5984942232       -7.0935520663       -7.0333176022
 H       -11.9677325721       -7.3773851297       -5.3815014531
 H       -10.1828592064       -7.6117945919       -5.8900564100
 H        -6.8302048770       -1.5260654914       -7.1671297072
 H        -5.8812608955       -0.9970863004       -8.5199547862
 H        -5.0055185626       -1.6457117313       -7.2239980656
 H        -7.2842712046       -4.2912358429      -10.0858255664
 H        -6.4693155369       -2.7746804852      -10.5565175781
 H        -7.9059629969       -2.7666357588       -9.4842367404
 H         0.1869509557       -5.5556984451      -10.5095654813
 H         0.5201911457       -5.3966922073      -12.2228111471
 H        -1.2306391004       -5.2714515188      -11.8632106032
 H         1.4070048892       -2.3450881421      -10.1426529466
 H         2.0322256506       -3.2349785193      -11.5690464508
 H         1.7811662547       -4.0537496389      -10.0721290796
 H        -0.3340028273        2.2836869248      -14.7852439981
 H        -1.8330023238        1.5610283244      -14.7987945890
 H        -1.4583215354        2.8287872721      -16.0213493924
 H        -1.0304548193       -0.6198309632      -17.8699099873
 H        -2.0934343640        0.8147575872      -17.7942446440
 H        -2.1823404091       -0.5145296840      -16.6886155065
 H         1.9798922683       -0.2831305671      -21.6864026612
 H         1.5831755887        1.5508559226      -21.5323478516
 H         0.8785214645        0.2903440807      -20.5274242775
 H         2.8994343378       -1.4773307398      -19.7711276182
 H         2.1073336335       -0.6399231940      -18.4747552174
 H         3.9330159556       -0.6040368085      -18.4879723973
 H         8.8751000345        1.3713159648      -23.1151012909
 H         9.4704451365        1.3207110385      -21.5004150772
 H         9.9527527349        2.6092519142      -22.7174123241
 H         9.4702852509        4.4356468242      -21.4780450444
 H         8.5707856053        3.9178846163      -19.9368102443
 H         7.7024642744        4.9734738329      -21.1716469429
 H         2.7209138460        3.8783265852      -27.8550275874
 H         1.9663079876        4.4664963420      -26.2762555027
 H         2.8458660682        3.0149526285      -26.3849317650
 H         5.3874758928        4.9185992990      -28.3946836598
 H         4.7184872645        3.3226182304      -28.1807492786
 H         6.1581379853        3.8781575534      -27.2926576132
 Na       -7.4288498588       -3.3560275850       -3.7285181003
 Na        3.9653678633        3.6758344515      -21.8364234704
