232

 C         3.8112368897        6.9937040650      -28.1166349254
 C         4.1757058510        6.2548813813      -26.7246105520
 O         4.3903604468        6.9579650431      -25.7550038590
 C         4.2844148931        4.6957670249      -26.5499778679
 C         4.8424843976        4.4412416390      -25.1243765452
 O         4.2129191841        3.9015279549      -24.2150247569
 C         6.2733039199        5.1271964913      -24.8920555615
 C         6.8965646014        4.8448059610      -23.5164541848
 C         7.5282810174        3.4907388474      -23.3895038726
 O         7.5519237860        2.6322345282      -24.2512652566
 C         8.0964367170        3.1549462100      -21.8240393738
 C         6.9290469403        2.5453532712      -21.1272447133
 O         5.9456403703        3.2531762285      -20.6670490682
 C         6.7551127348        1.0176739288      -21.0254081702
 C         5.5965685418        0.6075217097      -20.2522856291
 C         4.2615736976        0.8776311350      -20.8650867246
 O         4.1831407823        1.1559516279      -22.0181180753
 C         2.9523509746        0.6102474141      -20.0074412804
 C         2.8661902456        1.9487455927      -19.1896848314
 O         2.9581699828        2.9713073360      -19.7915971409
 C         2.9888829896        1.9253454255      -17.6798372314
 C         1.7591160771        2.2099647666      -16.7906088895
 C         0.4849833705        1.3771101059      -17.3023943217
 O         0.2871400040        1.3894601324      -18.5249350806
 C        -0.5182326108        0.7190106262      -16.2745925273
 C         0.2086083401       -0.4104431613      -15.4667025904
 O         1.3719648850       -0.6038612717      -15.7006050905
 C        -0.6195325025       -1.0713640520      -14.3374281042
 C         0.1110000418       -1.7159356122      -13.1598049506
 C        -0.7260468471       -2.8747636983      -12.4963874890
 O        -1.7714783270       -3.2666693571      -12.9982493358
 C        -0.1695854966       -3.5519526887      -11.1934739265
 C        -1.1997742934       -3.0817628184      -10.0716496363
 O        -0.7734901947       -2.4884977905       -9.0892559386
 C        -2.6863402883       -3.4176426597      -10.1927386445
 C        -3.4826856696       -2.9194019467       -8.8848844693
 C        -4.7150620528       -3.8298959068       -8.6207995589
 O        -4.5197474120       -5.0539950296       -8.4354884465
 C        -6.1233406199       -3.2879119754       -8.3138968148
 C        -6.8575937387       -4.1638746924       -7.0735574793
 O        -7.0406365817       -3.6364841533       -6.0317071177
 C        -7.2051990189       -5.6025180086       -7.4452779547
 C        -8.4648317165       -6.2830313655       -6.7242648758
 C        -9.6960620129       -5.3584637823       -6.8084096328
 O        -9.7527599276       -4.3882495811       -7.5244602144
 C       -10.8768329833       -5.6529521108       -5.7502231223
 C       -10.3388365541       -5.3014272654       -4.2893973528
 O        -9.8031060543       -4.1915443139       -4.1355113414
 C       -10.6322782825       -6.2877361790       -3.1871753114
 C       -10.2921796827       -5.8090807143       -1.7634179317
 C        -9.2910947408       -6.8212311291       -1.1510105924
 O        -9.0289074967       -7.8613560218       -1.7880676401
 C        -8.7820976430       -6.5885978702        0.3786321764
 C        -7.2955601287       -6.3154364284        0.2409082100
 O        -6.8645659146       -5.2307212409        0.6150899494
 C        -6.4127081145       -7.3502956689       -0.4897377201
 C        -5.0946826072       -6.6087791877       -0.9560658350
 C        -5.4414383713       -5.6232729378       -2.0995371702
 O        -6.5862783274       -5.2939810674       -2.2858068693
 C        -4.1960931311       -5.2309910330       -3.0200607625
 C        -4.0891658308       -3.6143498497       -2.9163869915
 O        -5.1385342695       -3.0056393720       -3.0685566398
 C        -2.8143186710       -2.7495287676       -2.6967044933
 C        -2.9546274107       -1.7754352607       -1.5732838281
 C        -3.3966210750       -2.5178531997       -0.2393772069
 O        -3.8227667441       -3.6514101740       -0.2201613275
 C        -4.0267110501       -1.6365263972        0.9483079754
 C        -5.4510356978       -1.3232376133        0.3956277408
 O        -5.5183354412       -0.4553089940       -0.4161533629
 C        -6.7332366345       -1.9806358385        0.9775385042
 C        -8.0542921131       -1.2257705554        0.5005377953
 C        -8.4499008183       -1.7131980874       -0.8844899804
 O        -7.9775353565       -2.7896112717       -1.2902203876
 C        -9.5020990065       -0.9275739118       -1.7076124746
 C        -8.8637121037       -0.4651440412       -3.1372115437
 O        -8.0161805735       -1.1545834152       -3.5620345919
 C        -9.5164573755        0.7324395602       -3.8296082398
 C       -10.7389817542        0.3558903774       -4.7169779550
 C       -10.9482303541        1.2036473941       -5.9959749218
 O       -10.0424006597        1.9291198030       -6.3668497180
 C       -12.1585774797        0.8389825637       -6.8858631962
 C       -11.8636358523       -0.6122314285       -7.3944892606
 O       -12.3073306546       -1.6178482120       -6.8311669331
 C       -10.9874404950       -0.6955127105       -8.6857196991
 C       -13.5109737104        0.7061746491       -6.0586139812
 C       -12.2989656504        1.9558384818       -7.9745160690
 C       -10.6065829739       -2.0358941163       -2.1719609864
 C       -10.1784346302        0.2961589189       -0.9354293756
 C        -4.1332723269       -2.3613738743        2.3228367667
 C        -3.0970502401       -0.4650943037        1.0415751775
 C        -2.8208972537       -5.8633075317       -2.7694276701
 C        -4.5552407359       -5.5039615175       -4.4945520758
 C        -9.4944276321       -5.3483536417        1.0239432429
 C        -9.1394363790       -7.9314965643        1.0348018152
 C       -12.0124357421       -4.7948463674       -6.0267875907
 C       -11.3373675512       -7.1685579684       -5.9945244148
 C        -6.0015001795       -1.8661911746       -7.8239491841
 C        -7.0610958550       -3.1946294771       -9.5315869832
 C        -0.2557681433       -5.0882162247      -11.4019330030
 C         1.3114847819       -3.2030556470      -10.9780543909
 C        -1.1790401923        1.7422482280      -15.2829121169
 C        -1.7639324829        0.1162188211      -17.1190690054
 C         1.7601947972        0.5742390830      -21.0399757083
 C         2.9849546164       -0.7910572222      -19.2625892029
 C         9.2847217020        2.1103597334      -22.0219540974
 C         8.6904429952        4.3945087991      -21.1683280110
 C         2.9610674894        4.0340640504      -26.5751299102
 C         5.1204543120        4.1561436868      -27.8028397009
 H         2.9986983234        6.5248472733      -28.5816370254
 H         4.7697603292        7.1781028414      -28.6719207817
 H         3.3938580980        7.9892889217      -27.8374196929
 H         6.4242400449        6.1769518610      -25.1072280882
 H         6.8601009440        4.5324902816      -25.6350571208
 H         6.1827472936        5.0763049544      -22.6980131929
 H         7.7117503441        5.5070040091      -23.3849183692
 H         7.5800005908        0.5425555178      -20.6619386487
 H         6.5820627463        0.7149999979      -22.1225325068
 H         5.5620683763        1.3026811431      -19.2938902944
 H         5.5461817038       -0.3884586873      -19.8976511268
 H         3.7027839638        2.7308283358      -17.5154072806
 H         3.4894792171        1.0109632432      -17.3528699083
 H         1.5514577326        3.2650614179      -16.9795387682
 H         2.0817302179        2.0592408113      -15.7032009015
 H        -1.3463666303       -1.6832323033      -14.8896563585
 H        -1.1831358143       -0.2288673693      -13.9222470855
 H         0.4533024444       -0.9954309361      -12.3589424259
 H         1.0266744622       -2.0898752172      -13.5426396962
 H        -2.8350090651       -4.5037100939      -10.3061432206
 H        -3.0754920480       -2.8789764042      -11.0323274922
 H        -3.8253960804       -1.9463623408       -9.0932492168
 H        -2.8296401096       -3.0610160383       -8.0072841223
 H        -6.2991569516       -6.2126456915       -7.2666590446
 H        -7.3860723614       -5.6824870002       -8.5247816362
 H        -8.1133496354       -6.4095108527       -5.6757455951
 H        -8.5675858044       -7.3708259823       -7.2236968665
 H       -10.0708779780       -7.2967320000       -3.3038583779
 H       -11.6694371528       -6.5738064246       -3.3656776810
 H       -11.1206604769       -5.6445757486       -1.0370725094
 H        -9.7983763197       -4.8551935348       -1.7772727794
 H        -7.0752714666       -7.6900184649       -1.2379210714
 H        -6.1847054351       -8.1572697839        0.2548764760
 H        -4.2178501809       -7.1329506316       -1.2461671728
 H        -4.8565303665       -5.9576943693       -0.0411923563
 H        -2.5187096467       -2.2132031852       -3.5676688267
 H        -2.0052797852       -3.2997218931       -2.4186460175
 H        -3.7354645462       -1.1197600625       -1.7898063950
 H        -2.0561863257       -1.1570427284       -1.5322813816
 H        -6.7050794547       -1.9891572158        2.0790595422
 H        -6.7423160288       -3.0244167541        0.6137339740
 H        -7.8886798419       -0.1300701595        0.4273369118
 H        -8.7719386334       -1.5591916207        1.2186064954
 H        -8.8847016878        1.0957258164       -4.6324705488
 H        -9.6966094773        1.5808181222       -3.2481159068
 H       -11.7149913078        0.3103329571       -4.1640860272
 H       -10.5728286068       -0.6670821454       -5.1496129841
 H       -10.2145448741        0.0191638625       -8.6030523405
 H       -11.3534677017       -0.3654898213       -9.6933668288
 H       -10.5021840419       -1.6983372672       -8.8533926900
 H       -13.4063112439        0.1858247898       -5.1622571694
 H       -14.2702206825        0.3246992136       -6.7446207242
 H       -13.7851653257        1.7335032005       -5.7674872419
 H       -11.3259339175        1.9810678716       -8.5004284946
 H       -12.3298747713        2.8732754934       -7.4623625988
 H       -13.2292507539        1.8882687917       -8.5068272269
 H       -11.5215275657       -1.5894329232       -2.6274518333
 H       -11.0531125235       -2.6928839471       -1.3557106391
 H       -10.1641547371       -2.7195226493       -2.9000770918
 H       -11.0947083861        0.6800470806       -1.3935624879
 H        -9.5335074398        1.1818383489       -0.7750503888
 H       -10.5181294437       -0.0179199776        0.1263247228
 H        -4.3920698178       -1.6711230241        3.0911640622
 H        -3.0828232015       -2.6723631107        2.5050952878
 H        -4.6892915288       -3.2498384080        2.3570231204
 H        -2.0840443994       -0.6999126566        1.3722689086
 H        -3.3811762832        0.2763531808        1.7721138939
 H        -2.9979292614        0.0466607297        0.0959566690
 H        -2.7345408997       -6.9732691212       -2.6701700801
 H        -2.3312770536       -5.4260372942       -1.8963100107
 H        -2.1956884169       -5.7820295781       -3.6164133059
 H        -4.5437261058       -6.5722396612       -4.6304158653
 H        -3.7539605184       -5.1454585209       -5.1426556267
 H        -5.5054850387       -5.1474486846       -4.7825799209
 H        -9.1529410275       -4.5980181584        0.3533598494
 H        -9.0118694219       -5.0952411723        1.9316035113
 H       -10.5883999740       -5.4785092349        1.1211532583
 H        -8.4449177662       -8.7475416925        0.8521198300
 H       -10.1517201113       -8.3080565376        0.7459573765
 H        -9.0168590837       -7.7056748882        2.1228516764
 H       -12.3156732233       -4.7819373735       -7.0712487201
 H       -11.6869951326       -3.7694941930       -5.8352780434
 H       -12.9175810077       -5.0099750474       -5.4462385798
 H       -11.2389432486       -7.4218612445       -7.0028583060
 H       -12.4166099300       -7.2678661389       -5.8779708875
 H       -10.6651532229       -7.8432396058       -5.4338312585
 H        -6.9292451544       -1.5133545041       -7.4809306159
 H        -5.7244116415       -1.2012153797       -8.5861810188
 H        -5.3596471846       -1.5900229057       -7.0153581880
 H        -7.1858600926       -4.0933053834      -10.1609294005
 H        -6.6388464752       -2.4468253721      -10.2219143775
 H        -8.0415668670       -2.9101268230       -9.2746427462
 H        -0.1731170045       -5.6183601496      -10.5028494281
 H         0.5732195879       -5.3460616356      -12.0191675537
 H        -1.2657982052       -5.2152747245      -11.8451838780
 H         1.5667924189       -2.1641123685      -11.1546431871
 H         2.1013107663       -3.7750663764      -11.5321219897
 H         1.5125490766       -3.4111681508       -9.9452281720
 H        -0.5186245936        2.1485116755      -14.4626133117
 H        -1.9915007414        1.3966849886      -14.7198876804
 H        -1.5219986101        2.6043565040      -15.7071531691
 H        -1.4870054202       -0.6814397083      -17.8623293753
 H        -2.2873487093        0.9590757751      -17.6705765032
 H        -2.5636434508       -0.3148867462      -16.4824317035
 H         1.8136499717       -0.3973254824      -21.6012469808
 H         1.8757639623        1.4517680356      -21.6644798265
 H         0.7593343231        0.6501795231      -20.5883059889
 H         3.0157025696       -1.5576379905      -20.0164308797
 H         1.9961339732       -0.9078409130      -18.7456301658
 H         3.7858937896       -0.7125007107      -18.5503215622
 H         8.9172589609        1.0952301483      -22.2306314199
 H         9.8840154184        2.0258620649      -21.1148455461
 H         9.8600764483        2.3287937717      -22.9190231961
 H         9.4940094509        4.8337192637      -21.7918628539
 H         8.9756906800        4.1362855608      -20.1801965345
 H         7.9258177224        5.0241833174      -20.9076424868
 H         2.5232935803        4.0069203172      -27.5694354467
 H         2.4519616766        4.6655079302      -25.8465815448
 H         2.8606308477        3.0282823866      -26.1433388002
 H         5.4442429190        5.0711482289      -28.3550307753
 H         4.6341655566        3.5171168661      -28.4704512653
 H         6.0778080860        3.5596003231      -27.5371622711
 Na       -7.2835422071       -3.5398249158       -3.5371933809
 Na        4.0959308252        3.4305369800      -21.8891777395
