232

 C         3.6511285706        6.6376718805      -28.2401167478
 C         4.1526343911        6.4257678921      -26.8527273568
 O         4.4615744085        7.2370710854      -26.0456456909
 C         4.2632143818        4.8037420331      -26.4966689407
 C         4.9208743309        4.6931708740      -25.0832799321
 O         4.2885025769        4.1814300227      -24.1933443447
 C         6.4243417037        5.0393660641      -24.9324717980
 C         6.9970603164        4.8166657798      -23.5199132861
 C         7.7002269164        3.4817976466      -23.3606844514
 O         7.7249772383        2.5677592704      -24.1207740697
 C         8.3305943563        3.1989942778      -21.8207053241
 C         7.0201815456        2.7033233396      -21.0867090642
 O         6.1708552618        3.4888617359      -20.8490531597
 C         6.7687612094        1.1129830064      -21.1693847306
 C         5.5178246781        0.5175392096      -20.2975407753
 C         4.1089546604        0.6700605715      -20.9652940108
 O         4.1255141799        1.0088061585      -22.1582547507
 C         2.8537404946        0.6047716069      -20.0988413180
 C         2.8198138159        1.9219135224      -19.2072149048
 O         2.9603750554        3.0426599342      -19.7355479554
 C         2.8936302126        1.7942501057      -17.5970694239
 C         1.5849831938        2.0890972387      -16.7718832777
 C         0.3410174501        1.3806299138      -17.2916720799
 O         0.0537708356        1.3551971018      -18.4464955913
 C        -0.6550626216        0.8436539780      -16.2163480712
 C         0.0931117066       -0.3562902470      -15.3575950316
 O         1.1785711739       -0.8291821122      -15.7077157508
 C        -0.7754960273       -0.9968466450      -14.2798235305
 C         0.0568544757       -1.7922547630      -13.2954368038
 C        -0.8605882373       -2.8857223280      -12.6615696068
 O        -1.8248655196       -3.2719615527      -13.2803767944
 C        -0.4258394745       -3.5107189548      -11.2575864239
 C        -1.3881034156       -2.9646833919      -10.1489098113
 O        -0.8608929060       -2.3774701923       -9.2187680334
 C        -2.8297713986       -3.4822157213      -10.0436947510
 C        -3.6333955071       -2.7981660155       -8.9735700114
 C        -4.7037773379       -3.7753523756       -8.3126687831
 O        -4.4834480259       -4.8956535763       -8.0509425987
 C        -6.1576011460       -3.1927220498       -8.0372175254
 C        -6.8676649200       -4.0958227943       -6.9917165406
 O        -7.2327644743       -3.6531993685       -5.8545445242
 C        -7.1311214748       -5.5862144399       -7.3440118549
 C        -8.3588414092       -6.2698931331       -6.6671606018
 C        -9.6526919722       -5.3886315331       -6.8210348415
 O        -9.6679266916       -4.4112454015       -7.5494334758
 C       -10.8930510185       -5.7265977712       -5.7789102133
 C       -10.3693134250       -5.3522246488       -4.4007508558
 O        -9.6025139201       -4.3981306458       -4.4117327301
 C       -10.6952301280       -6.2532809898       -3.1980829783
 C       -10.0617603459       -5.6702874525       -1.9746794962
 C        -9.3079163403       -6.8342103562       -1.1598973448
 O        -8.9169550385       -7.7442975399       -1.8057309589
 C        -8.8780816640       -6.7298064880        0.3553677467
 C        -7.2940475546       -6.4134249789        0.2751262395
 O        -6.8892129292       -5.4181502314        0.7869714957
 C        -6.3100956569       -7.5133238424       -0.3934591724
 C        -5.1608314925       -7.0238790199       -1.1829202397
 C        -5.3610175946       -5.7892834422       -2.1587349656
 O        -6.4926048981       -5.3036286160       -2.3063755290
 C        -4.1769601415       -5.3006652839       -2.9714746252
 C        -4.1347376478       -3.6333185830       -2.9799890470
 O        -5.1131778349       -2.9146158677       -3.1346636194
 C        -2.7950905577       -2.9644077010       -2.7648214380
 C        -2.9807415634       -1.7473382188       -1.7214711603
 C        -3.5266108196       -2.5021829249       -0.4759102339
 O        -3.7930384821       -3.7115980341       -0.4921606017
 C        -3.9238869067       -1.4911706355        0.7233727508
 C        -5.3977034481       -0.8767156691        0.4195706228
 O        -5.5323562203       -0.0053090508       -0.4290509332
 C        -6.5973560132       -1.5687791315        1.0084663011
 C        -7.9225714072       -1.0075827421        0.4684295552
 C        -8.2549206199       -1.6850345195       -0.8752618700
 O        -7.8796532008       -2.7928925340       -1.1506043765
 C        -9.3981034068       -0.9927917436       -1.7767527064
 C        -8.7188832335       -0.6158948698       -3.1617420450
 O        -7.7048879461       -1.2394118919       -3.6554354049
 C        -9.2303713646        0.5854274937       -4.0520105933
 C       -10.6882412608        0.3099298553       -4.5976605507
 C       -10.9066964891        1.0858540703       -5.9149119240
 O       -10.0812554614        1.7570582433       -6.4589522321
 C       -12.2092044480        0.8061581273       -6.7695685339
 C       -11.8371147295       -0.6093297310       -7.4812940828
 O       -12.0152720986       -1.5579909372       -6.7687695944
 C       -11.0701959959       -0.7188303338       -8.7762212803
 C       -13.4760078847        0.5999254647       -5.8776194015
 C       -12.5236966347        1.9648374901       -7.6630400820
 C       -10.5030174957       -2.0157754812       -2.0205934648
 C       -10.0488352702        0.2519427002       -1.1341724611
 C        -3.8858330035       -2.4165654146        1.9095328640
 C        -3.0365582069       -0.2828054430        0.9293278985
 C        -2.9342509758       -5.8476909600       -2.3472119560
 C        -4.3378419921       -5.7194962606       -4.4554271754
 C        -9.6373515243       -5.7398232010        1.2479855602
 C        -9.0151592703       -8.1977108760        1.0232204722
 C       -12.1318637180       -4.7363817292       -6.0935503844
 C       -11.2899697818       -7.1898442076       -5.9034210935
 C        -6.2378774028       -1.7841827410       -7.5024330367
 C        -6.8798780217       -3.3558767813       -9.3701723952
 C        -0.5136417895       -5.0812461067      -11.3164547632
 C         0.9875033603       -3.0671473946      -10.7765398564
 C        -1.0888605999        2.0387456987      -15.2910567743
 C        -1.7738005123        0.0512807971      -16.9144002322
 C         1.5955123217        0.6290793500      -21.0183572686
 C         2.8215293267       -0.7484412067      -19.2250735873
 C         9.5518634482        2.2566447035      -21.8673802180
 C         8.7444745787        4.6129328238      -21.2138268333
 C         2.7994898700        4.2366433473      -26.5192157978
 C         5.1586301277        4.0070799921      -27.5337746276
 H         3.0365101873        5.7591353474      -28.5569202525
 H         4.5909160411        6.7105879418      -28.7148025854
 H         3.0186947351        7.4764172331      -28.3935816278
 H         6.5897075545        6.0869455399      -25.2294243431
 H         6.9384231578        4.4085178186      -25.6191883338
 H         6.2170126189        4.8102997067      -22.7512410203
 H         7.7039968572        5.6723789948      -23.2537630161
 H         7.7255391672        0.6071692078      -20.6476060136
 H         6.7718558941        0.7712559867      -22.1914190346
 H         5.5085724820        0.8924390470      -19.3178823668
 H         5.5399926732       -0.6215174533      -20.1616093638
 H         3.7188200359        2.4075033093      -17.2578380833
 H         3.1901170743        0.7787638377      -17.4563241310
 H         1.4997294399        3.1700278381      -16.7494988478
 H         1.7241912601        1.7605153680      -15.7912315119
 H        -1.5052171707       -1.6770000117      -14.7662609278
 H        -1.3099291619       -0.1539214368      -13.7998072324
 H         0.5519282029       -1.2955234692      -12.5258819475
 H         0.8905650957       -2.2326406021      -13.9176751189
 H        -2.8040210512       -4.5067184850       -9.7279243620
 H        -3.2605493657       -3.3549601663      -11.0599044352
 H        -4.1874420581       -1.8856682889       -9.3973621612
 H        -2.9175847681       -2.5029368913       -8.2052184353
 H        -6.2554230127       -6.1907326008       -7.0850569559
 H        -7.1285460834       -5.7253487860       -8.4370131979
 H        -7.9836444934       -6.4076887187       -5.6643078363
 H        -8.5432259617       -7.1695138886       -7.0920422122
 H       -10.3003651680       -7.2309837998       -3.2836011557
 H       -11.7920895565       -6.3914799088       -3.0727025011
 H       -10.7702500075       -5.1545949816       -1.3104267130
 H        -9.2984490853       -4.8474987337       -2.1995996712
 H        -6.9063842051       -8.2839366002       -1.0070446805
 H        -5.8935941014       -7.9781888105        0.5099272260
 H        -4.8380087664       -7.8832131241       -1.8786136540
 H        -4.3149751532       -6.7539348393       -0.5835720652
 H        -2.3503475592       -2.5815120069       -3.7461557531
 H        -1.8900660232       -3.5213572609       -2.3234791603
 H        -3.8202067888       -0.9903021548       -2.0077986207
 H        -2.1198429828       -1.0640921453       -1.7061420626
 H        -6.5714346987       -1.5403972146        2.1004941741
 H        -6.4331922141       -2.5961337559        0.6761722358
 H        -7.8092966560        0.0805611421        0.3172869381
 H        -8.7072753620       -1.3362578282        1.2146246407
 H        -8.5881337217        0.7280185271       -4.9666618999
 H        -9.3446155833        1.6511150643       -3.6003681625
 H       -11.4510041907        0.3949110491       -3.8249243900
 H       -10.6565646345       -0.7337382463       -4.9174470890
 H        -9.9907967869       -0.3575122578       -8.8509169470
 H       -11.5440558003       -0.1593866974       -9.5614021501
 H       -11.0281078243       -1.7039860804       -9.1001365816
 H       -13.3982427700       -0.3860171629       -5.3764598600
 H       -14.3143059852        0.6908424389       -6.6031668440
 H       -13.6233635612        1.3318268527       -5.0608410610
 H       -11.6754368464        2.0915841051       -8.2830994877
 H       -12.6403694821        2.9017539654       -7.0790460736
 H       -13.3886336170        1.7052448599       -8.2838391357
 H       -11.2573491600       -1.7852587814       -2.7052784294
 H       -11.0300221760       -2.1366517318       -1.1420201700
 H       -10.0864033690       -2.9570319724       -2.2573880698
 H       -10.9245269429        0.6855131169       -1.6823461152
 H        -9.3347779659        1.1070470531       -0.9908509982
 H       -10.3968630653       -0.0004398907       -0.1671589009
 H        -4.5180574633       -2.0069092759        2.7119814097
 H        -2.8893596576       -2.5023584591        2.3017223333
 H        -4.2643744797       -3.4118651288        1.6261058659
 H        -1.9850992260       -0.5327554285        0.6349216043
 H        -2.8949948300        0.0034565209        1.9821912558
 H        -3.2338292307        0.6116841679        0.2994042408
 H        -2.7744229945       -6.8722619749       -2.5653307896
 H        -2.9352282910       -5.7417700464       -1.2574621465
 H        -1.9936457309       -5.4694814591       -2.7645468359
 H        -4.5134441471       -6.8074733015       -4.6469386839
 H        -3.4566579589       -5.4254780064       -5.0362296841
 H        -5.2080508143       -5.1504176428       -4.8587731821
 H        -9.4941088496       -4.7280496336        0.8239669835
 H        -9.1793611755       -5.7861896163        2.2646349435
 H       -10.6555975622       -6.1024995363        1.2620974732
 H        -8.8440251172       -8.9523366049        0.2463603992
 H       -10.0566803081       -8.2971176065        1.1266358138
 H        -8.4642739399       -8.3831900795        1.9083702249
 H       -12.6789983044       -5.0245496375       -6.9909543231
 H       -11.8043986530       -3.7024427817       -6.2093280926
 H       -12.8810196889       -4.7753310146       -5.3030031411
 H       -11.6162772749       -7.4917476258       -6.8908652952
 H       -12.0956747609       -7.3607182658       -5.2245285792
 H       -10.4538955226       -7.8321071038       -5.6866844690
 H        -7.2151753410       -1.3983361612       -7.1834983346
 H        -5.6768037774       -1.0108346632       -8.0480862060
 H        -5.8787629368       -1.6952991077       -6.4937163531
 H        -6.5673535769       -4.2190839333       -9.8704864393
 H        -6.6961015211       -2.6008704445      -10.0969138834
 H        -7.9599711679       -3.4611829971       -9.2727026504
 H        -0.3572787127       -5.4163630299      -10.2619540965
 H         0.3231724625       -5.4367144449      -11.9702244539
 H        -1.5615774042       -5.3403597876      -11.4322691122
 H         1.0895867685       -1.9514233932      -10.6700555290
 H         1.7186668161       -3.2316097918      -11.5140770454
 H         1.3667088331       -3.5777254500       -9.8302049983
 H        -0.3138353847        2.4528811259      -14.6685294979
 H        -1.9185098248        2.0189834391      -14.5924195189
 H        -1.2988634099        2.9628797835      -15.8890226881
 H        -1.2958054829       -0.6785849302      -17.5448097495
 H        -2.2319403679        0.6712175604      -17.6478235619
 H        -2.5939094431       -0.3451168605      -16.3087437961
 H         1.7342593304       -0.0499459075      -21.8430719918
 H         1.5104416611        1.6190133200      -21.4215801701
 H         0.7004039517        0.4348502353      -20.4363354012
 H         2.8353123662       -1.4898643935      -20.0003501291
 H         1.9226826981       -0.8080397217      -18.7000338702
 H         3.6595831001       -0.7230528772      -18.5370906660
 H         9.4899414323        1.4440743695      -22.6480842286
 H         9.5771384948        1.8362478863      -20.8652923286
 H        10.5249823254        2.7434319919      -22.0880368552
 H         9.1450463752        5.3219774044      -21.9592696407
 H         9.4307654917        4.5138994698      -20.3395549746
 H         7.8935537779        5.0235993246      -20.5763995039
 H         2.2802357216        4.8234516074      -27.3015348972
 H         2.4097742542        4.5156503524      -25.5254907848
 H         2.5362362341        3.1896344906      -26.7831203404
 H         6.0292149167        4.6291162824      -27.7062492926
 H         4.6465640075        3.8236326226      -28.5251308869
 H         5.4387406949        3.0503588917      -27.2904933612
 Na       -7.6053894583       -3.5094332115       -3.5019869862
 Na        4.0496609489        3.2650900080      -22.1427688988
