232

 C         3.5949448068        6.4502439788      -28.3277726376
 C         4.2672403662        6.1802413109      -26.9951287676
 O         4.9116560072        7.1170900462      -26.4547757544
 C         4.1368502186        4.8074076256      -26.3348064059
 C         4.9736614176        4.6673910332      -24.9709226354
 O         4.3649536174        4.6926298442      -23.8931509854
 C         6.4801453462        5.0059607836      -24.9966779155
 C         7.1390906070        4.9196758347      -23.5792472050
 C         7.9513424511        3.6626980088      -23.3093771594
 O         8.3414686318        2.8860044703      -24.1833060769
 C         8.1203779509        3.2726214761      -21.7791172441
 C         6.7425576301        2.5808734964      -21.3348900257
 O         5.8401956996        3.3290089152      -21.0910485886
 C         6.7884122749        1.0617186174      -21.1914153027
 C         5.6166870207        0.5225630926      -20.3645299629
 C         4.2422876844        0.7718843801      -21.0795755406
 O         4.2261161822        1.0835094282      -22.2301929327
 C         2.8843768120        0.5362225055      -20.3138109570
 C         2.8119180851        1.8751133225      -19.2499128347
 O         3.0125703183        3.0195657604      -19.6295092829
 C         2.6542979309        1.5533776400      -17.8033361421
 C         1.4357656378        2.1777501645      -17.1617976485
 C         0.1836375238        1.2772752519      -17.3313979179
 O         0.0002694272        0.7680208843      -18.4455694039
 C        -0.8318421629        1.0163400298      -16.1297634901
 C        -0.2162202067       -0.2217745569      -15.3429327792
 O         0.9224698926       -0.5296217775      -15.4854743727
 C        -1.1255919395       -0.9356391960      -14.3329229729
 C        -0.3294667900       -1.6650953425      -13.2309399407
 C        -1.1568264053       -2.8347912470      -12.5990256158
 O        -2.2824171495       -3.0192597297      -13.0196710832
 C        -0.7244344386       -3.5232262600      -11.2438096377
 C        -1.7013780006       -2.8072668761      -10.2653044656
 O        -1.4785920533       -1.6681544987       -9.9608211732
 C        -2.9441562882       -3.6266859056       -9.7281716157
 C        -3.9790580381       -2.7287599729       -9.0672100743
 C        -4.7687994797       -3.3916269460       -7.9797050365
 O        -4.1049371575       -3.9687867276       -7.1001899260
 C        -6.3328706389       -3.1359155597       -7.8086399959
 C        -6.8415657703       -4.2626944882       -6.7748230835
 O        -6.8367891861       -4.0287342123       -5.6296564858
 C        -7.0814425237       -5.6590705614       -7.2060459768
 C        -8.2620799481       -6.3465208209       -6.5042773174
 C        -9.5257425100       -5.6526987395       -6.8576214245
 O        -9.7701139397       -4.9847357649       -7.8109528729
 C       -10.6809659472       -5.8111187836       -5.7488838385
 C       -10.1829823173       -5.3623083922       -4.2880803539
 O        -9.6316817516       -4.2776863955       -4.1796653444
 C       -10.7616527548       -6.0213604812       -3.0617940516
 C       -10.0011800653       -5.8870064554       -1.7329791542
 C        -9.3858220059       -7.1981792047       -1.3426195397
 O        -9.4212018193       -8.1936855018       -2.0791033612
 C        -8.7357292859       -7.2888631406        0.0558691293
 C        -7.2334261068       -6.8698276303        0.1783148455
 O        -6.9533176876       -5.8532389398        0.7983932652
 C        -6.0790790790       -7.7185130215       -0.4078400428
 C        -4.8848588795       -6.7566433017       -0.6992863699
 C        -5.1928221080       -5.9666252937       -1.9986177311
 O        -6.3387960581       -5.9265889564       -2.3636559080
 C        -4.0037212802       -5.4028196861       -2.9178057049
 C        -4.1122133791       -3.9217351343       -3.1364454905
 O        -5.1334249728       -3.3868006671       -3.4901798845
 C        -2.8972377238       -3.0089232042       -3.0232304584
 C        -3.3899886225       -1.8790496273       -2.1590554226
 C        -3.7530788837       -2.3426397834       -0.7253340351
 O        -4.2460969538       -3.4344955315       -0.4591350415
 C        -3.7056640589       -1.1967911528        0.4330547888
 C        -4.9899812133       -0.3951451925        0.3384457403
 O        -5.0764553591        0.5908133096       -0.3572620606
 C        -6.2596448221       -1.1462710697        0.9386714483
 C        -7.5622319550       -0.5830342066        0.3588361144
 C        -8.0667496230       -1.4184537965       -0.9581007183
 O        -7.6641419476       -2.5048252195       -1.2733472684
 C        -9.1568250301       -0.7452163242       -1.8754018602
 C        -8.4866436856       -0.6575075882       -3.2863181666
 O        -7.8201394626       -1.5172188501       -3.7550964977
 C        -8.8343440085        0.5512933033       -4.2522036433
 C       -10.3075118830        0.2838817790       -4.7410582335
 C       -10.7550925505        1.0115828890       -6.0135511328
 O       -10.0365934008        1.8628197865       -6.5602959313
 C       -12.1810304564        0.6496183259       -6.5245232982
 C       -11.8702651686       -0.5649616471       -7.4022883456
 O       -11.8040062082       -1.5961902725       -6.7316212651
 C       -11.8176603192       -0.4249576911       -8.8944844253
 C       -13.2313223735        0.1529047361       -5.4692980755
 C       -12.7767990584        1.8972433236       -7.3020370930
 C       -10.1710078942       -1.8766354707       -2.0356287785
 C        -9.7114703335        0.5671875468       -1.2524146144
 C        -3.6004952052       -1.9788195042        1.7383401844
 C        -2.5456941344       -0.1225531150        0.3223327772
 C        -2.5561129353       -5.8209688700       -2.4797143114
 C        -4.2416734248       -6.1843073356       -4.2577861329
 C        -9.4918312152       -6.2027494353        1.0810331775
 C        -9.1042786055       -8.7306531649        0.5897649670
 C       -11.8381174787       -4.8835265544       -6.0716541146
 C       -11.0640598900       -7.3532534344       -5.7186938565
 C        -6.3244428222       -1.8081031652       -7.1144843545
 C        -7.2499602730       -3.0712722989       -9.0102335747
 C        -0.9931097003       -5.1596147230      -11.2218234916
 C         0.7323262426       -3.1947072337      -10.8022988177
 C        -0.9599466332        2.3119055535      -15.3311193097
 C        -2.1780635530        0.5495559994      -16.8521896222
 C         1.7581137166        0.6317829051      -21.3618415620
 C         2.9233099525       -0.8155648524      -19.6407411837
 C         9.4093224308        2.3877630724      -21.7267063343
 C         8.3590214185        4.4956754195      -20.8259630542
 C         2.5565336168        4.5940575445      -26.0497294053
 C         4.8839960918        3.6037162233      -27.2510963444
 H         2.6899449471        5.9615358031      -28.5304040271
 H         4.3661144030        6.2351379800      -29.1093052560
 H         3.4095017577        7.5445327627      -28.2337335181
 H         6.4580924786        6.0666552601      -25.3570916583
 H         7.0625487220        4.4117917972      -25.6452594969
 H         6.4593944918        5.1979216622      -22.7381216251
 H         7.9422335619        5.6976111734      -23.5998393476
 H         7.6583616377        0.8317241498      -20.7548363775
 H         6.8750292415        0.6369751634      -22.2171628547
 H         5.5564761355        0.9295186175      -19.3226577809
 H         5.7134461020       -0.4817582016      -20.1521883231
 H         3.5640564170        1.8172930937      -17.2951781012
 H         2.5900871116        0.4927958551      -17.5954383693
 H         1.1269387615        3.0944096641      -17.5494465857
 H         1.7646518300        2.4194307819      -16.1703462015
 H        -1.8203614896       -1.6368051126      -14.8311917763
 H        -1.7349880493       -0.1540226047      -13.8484858647
 H        -0.0843170850       -1.0348401519      -12.3173803568
 H         0.5898590554       -2.1113591352      -13.5962380498
 H        -2.4565265747       -4.3167745788       -9.0505555911
 H        -3.3582439605       -4.1352221156      -10.5846200252
 H        -4.5809698597       -2.3459681868       -9.9047371346
 H        -3.5460334723       -1.7623400816       -8.7366987021
 H        -6.1276948340       -6.1899578985       -7.0378904222
 H        -7.1972511797       -5.8822907956       -8.2669141234
 H        -8.1218759991       -6.3080401537       -5.5105317249
 H        -8.2155064282       -7.3508171015       -6.8104901788
 H       -10.9363369976       -7.0559630838       -3.2617664387
 H       -11.7169384767       -5.5136509334       -2.8894805881
 H       -10.6914775834       -5.6142614926       -0.8908755881
 H        -9.2681568989       -5.0486065817       -1.8104375613
 H        -6.6246126324       -8.0775664956       -1.2882933854
 H        -5.6019179855       -8.5484386912        0.1744416599
 H        -3.9142860805       -7.2123715966       -0.7457380358
 H        -4.8275844028       -6.0550857104        0.1944857191
 H        -2.6183657504       -2.7502290159       -4.1170178437
 H        -1.9388336281       -3.3878565237       -2.6012427488
 H        -4.1327322479       -1.3189268025       -2.7774405394
 H        -2.7054092096       -0.9916331809       -1.9651299120
 H        -6.2531827913       -1.1937111403        2.0463090868
 H        -6.1095547967       -2.1375907301        0.5479764998
 H        -7.3586695141        0.5233677264        0.2144840158
 H        -8.3993967676       -0.7720428455        1.0793951701
 H        -8.1226239660        0.4695514656       -5.1391042341
 H        -8.9167723509        1.4935829942       -3.6899255117
 H       -10.9380281770        0.3785540926       -3.8442552345
 H       -10.2441412498       -0.7619060843       -4.9043840598
 H       -11.7736197809        0.5025642729       -9.2855713983
 H       -12.6194886467       -0.9840628148       -9.3815845181
 H       -10.8300633858       -0.6875737825       -9.2721655308
 H       -12.8816214144       -0.7060785614       -4.9204644445
 H       -14.1484106932       -0.2339289944       -5.9976898208
 H       -13.6322933849        1.0041437805       -4.8282271823
 H       -12.1984052346        2.1692508938       -8.1847987341
 H       -12.8335580179        2.6380147467       -6.5848087842
 H       -13.7328112106        1.6840842925       -7.7133392849
 H       -11.1114819442       -1.7323682361       -2.5044145697
 H       -10.3543553322       -2.2174528509       -1.0343281573
 H        -9.7156698209       -2.6746940016       -2.5177889796
 H       -10.4374367547        0.9212664411       -1.9602690353
 H        -8.9252651250        1.3006280306       -1.0638431929
 H       -10.1926305047        0.3471873422       -0.2423610632
 H        -3.9363212900       -1.3800243126        2.5631574666
 H        -2.5572443402       -2.3351131139        1.8965657901
 H        -4.2727870381       -2.7874051820        1.6714430928
 H        -1.5390925503       -0.6576023372        0.4065965299
 H        -2.5577481953        0.7863001417        0.9314617011
 H        -2.5550331550        0.2490079859       -0.7216382879
 H        -2.5991766290       -6.9211359762       -2.4318003795
 H        -2.2694574118       -5.5226165224       -1.4777977166
 H        -1.8027702050       -5.4234536765       -3.0946965255
 H        -3.9903712888       -7.2502397890       -4.0322064063
 H        -3.6434578071       -5.7821995813       -5.0912311271
 H        -5.2260451066       -6.1310148139       -4.6502702081
 H        -9.3025654838       -5.2366980059        0.6641795042
 H        -8.9530977533       -6.3896483951        1.9943086699
 H       -10.5897561380       -6.4214470080        1.1740071096
 H        -8.3950079800       -9.4706834609        0.2806279698
 H       -10.1196633877       -9.0346057496        0.3584827381
 H        -9.0620391447       -8.5747518645        1.6675714653
 H       -11.9441299050       -4.7748128760       -7.1509648371
 H       -11.6128161880       -3.8938582532       -5.6838505599
 H       -12.7945747432       -5.2262771025       -5.6549533183
 H       -11.0965425649       -7.6910812632       -6.7317272510
 H       -12.0293849518       -7.5229034322       -5.3089025284
 H       -10.4715291449       -8.0166472660       -5.1288512849
 H        -7.2961870389       -1.3206699554       -7.0153655965
 H        -5.8815172579       -0.9945514917       -7.6980790543
 H        -5.8703790766       -1.7350899435       -6.0944839253
 H        -7.1115972155       -3.7809933611       -9.7990675764
 H        -7.3501625771       -2.0841507757       -9.4189111911
 H        -8.2082144973       -3.2453634496       -8.6771117782
 H        -1.0026765399       -5.3904690979      -10.1532241101
 H        -0.1941606547       -5.6682170558      -11.8103772090
 H        -2.0656475798       -5.4099289154      -11.5347233998
 H         1.1735740239       -2.2098542728      -10.9118954637
 H         1.5238086072       -3.8663475084      -11.2857797091
 H         0.8267876527       -3.3735900611       -9.7371081303
 H        -0.1331725567        2.4320632454      -14.5875067979
 H        -1.8808024708        2.2816411973      -14.7031374306
 H        -1.0548679331        3.3015475210      -15.7085251931
 H        -2.0044089156       -0.1784507122      -17.6545534669
 H        -2.7316170448        1.3868884505      -17.3270277311
 H        -2.7887242150        0.1495747999      -16.0702461003
 H         1.8781438492       -0.0747030674      -22.1816429873
 H         1.8517723428        1.5510862937      -21.8719990676
 H         0.8298165436        0.5480222548      -20.8556962827
 H         3.3535989686       -1.4418291942      -20.3620535427
 H         1.9174029329       -0.9994014401      -19.2659154876
 H         3.6429473614       -0.7714616290      -18.8536752009
 H         9.2277497493        1.3580227873      -22.0653203384
 H         9.6977997868        2.3959164815      -20.6644285667
 H        10.3364339405        2.8598320947      -22.1133384096
 H         9.2606392045        5.2116093932      -21.0222502996
 H         8.5739382891        4.1353168863      -19.7974655349
 H         7.5207351414        5.1922493484      -20.9692642241
 H         1.9846417818        4.3426263676      -26.9746172715
 H         2.1620190540        5.6073621977      -25.8224614858
 H         2.4538204822        3.8174719731      -25.2520069156
 H         5.7148423538        3.8432707985      -27.9010252780
 H         4.1428913674        3.1784684268      -27.8249785840
 H         5.2649545072        2.7398340031      -26.6439492595
 Na       -7.4721266956       -3.9945468340       -3.1621309276
 Na        3.8132002319        3.6666360968      -21.9975621536
