232

 C         3.6605295168        6.3098767834      -28.2239904127
 C         4.4324099044        6.1580211871      -26.9353112157
 O         5.2250040114        6.9620756277      -26.5874824236
 C         4.0986984941        4.7769709868      -26.1863769151
 C         4.9287163943        4.8347775182      -24.8621471396
 O         4.3232178993        4.6839937577      -23.8455768177
 C         6.4353320805        5.0580836131      -24.8339268569
 C         7.1136293013        4.9996014272      -23.5015793236
 C         7.8950633938        3.6879965567      -23.3003148437
 O         8.4808869151        3.1151340606      -24.2189654868
 C         8.1253298831        3.2902046898      -21.7696227805
 C         6.9131749597        2.5786198785      -21.2824342361
 O         5.8312526531        3.2127631147      -21.0929316666
 C         6.9390407308        0.9756598716      -21.0458425683
 C         5.6128457249        0.3896660980      -20.6086822982
 C         4.2902634748        0.9228385121      -21.1668660517
 O         4.2750932790        1.5497263923      -22.2323439500
 C         2.9243126794        0.5638027053      -20.4445404427
 C         2.7570523636        1.6867466065      -19.4059322431
 O         2.7490281590        2.8045324513      -19.8901090623
 C         2.6410893478        1.4903777197      -17.8157299347
 C         1.3070761202        2.0952301882      -17.2078403470
 C         0.1733879887        1.0977628602      -17.3376115114
 O         0.0356925374        0.4248307197      -18.3311290760
 C        -0.8917385764        1.0367561529      -16.1580672239
 C        -0.2764714254       -0.1251034119      -15.2570374067
 O         0.9596328556       -0.3356375748      -15.2698802902
 C        -1.2158746259       -1.0056305994      -14.4143080175
 C        -0.5196827616       -1.6168718111      -13.2693489194
 C        -1.4023223129       -2.7109322252      -12.6423423036
 O        -2.4586187161       -3.0897894888      -13.1236008872
 C        -0.8224834802       -3.3885810445      -11.3482980729
 C        -1.8866816646       -2.6303592266      -10.3407796073
 O        -1.8439934930       -1.4194956846      -10.1300138043
 C        -2.9406899840       -3.5013850264       -9.5148418534
 C        -4.1637671675       -2.6228366032       -9.2053012800
 C        -4.7045316152       -3.1062586667       -7.8297623984
 O        -4.0560465834       -3.7865692847       -7.1192597392
 C        -6.2233150584       -2.9999649502       -7.5186737886
 C        -6.7037462894       -4.2093763937       -6.6849156131
 O        -6.9367861464       -4.1218913738       -5.4884424743
 C        -6.9983009151       -5.5664665588       -7.2404301277
 C        -8.0415093539       -6.3645343131       -6.3923254543
 C        -9.5073518590       -5.7237029137       -6.7028653954
 O        -9.6635272375       -5.2885200810       -7.8508108567
 C       -10.7319549460       -5.8809905046       -5.6936473073
 C       -10.2557439046       -5.3990239470       -4.2832582207
 O        -9.4419655570       -4.5239638730       -4.2215464753
 C       -10.9005277791       -6.0347815009       -3.0197736021
 C       -10.1136670027       -5.8945768821       -1.6714609806
 C        -9.3904249616       -7.3319586928       -1.2769540124
 O        -9.3465516242       -8.2177368965       -2.0651694824
 C        -8.8082284511       -7.4395068188        0.1596271383
 C        -7.2308443225       -6.9071886915        0.2367897023
 O        -7.0019606132       -5.8581417093        0.7821402153
 C        -6.1020809631       -7.8015662478       -0.3127089335
 C        -4.9056944748       -6.9032745412       -0.6841693769
 C        -5.1086214217       -6.1096520075       -2.0972056294
 O        -6.2379280233       -5.7461134417       -2.3467249849
 C        -3.8465004570       -5.6748788792       -2.9879166126
 C        -4.0734377427       -4.0453996479       -2.9828726295
 O        -5.1257870927       -3.6810744419       -3.4252498251
 C        -2.9805870622       -3.0217695421       -2.9210178691
 C        -3.3733613377       -1.7434882119       -2.2942534518
 C        -3.6573643086       -2.1375611299       -0.7970504507
 O        -4.1524288279       -3.1945959485       -0.5745342306
 C        -3.5120708496       -1.0625901291        0.3321471907
 C        -4.8983751459       -0.3735865054        0.3228108323
 O        -4.9599688616        0.6256519379       -0.3152759005
 C        -6.2212546581       -0.9695503392        0.8996806425
 C        -7.5184672997       -0.4942907214        0.2387382740
 C        -7.8327302641       -1.3950830686       -0.9758331349
 O        -7.3409055240       -2.5012168692       -1.1615617060
 C        -9.0223062645       -0.7976079289       -1.9083533001
 C        -8.5563929831       -0.6761867216       -3.3916584758
 O        -7.8489951275       -1.5665311724       -3.8929470642
 C        -8.8522380401        0.5062324274       -4.2456945396
 C       -10.2694183767        0.1931500894       -4.8839408551
 C       -10.7184329635        1.0855942587       -5.9590165091
 O       -10.0793738824        1.9398331525       -6.5320175743
 C       -12.2560737010        0.6480466472       -6.5236051676
 C       -12.0489190008       -0.6190817341       -7.4582342682
 O       -11.6036205903       -1.6255874564       -6.9597329313
 C       -12.1007100692       -0.5145209866       -9.0081873665
 C       -13.1392968235        0.3549549817       -5.2053839137
 C       -12.8573698305        1.9069063625       -7.1949483238
 C       -10.3174097466       -1.7003389769       -1.8483509417
 C        -9.5645528341        0.6214858447       -1.4583986160
 C        -3.2887671248       -1.7487379183        1.7382003840
 C        -2.2663788934       -0.1768918315        0.0968454823
 C        -2.5633337596       -6.2031420670       -2.4206013476
 C        -4.1540624682       -6.1790576413       -4.4876781598
 C        -9.6001207055       -6.6937838966        1.1760778558
 C        -8.7599850791       -9.0143985925        0.5137093511
 C       -11.9466180871       -5.0062407361       -6.1469196652
 C       -11.1716042579       -7.3024317972       -5.7354280408
 C        -6.6484023831       -1.7924678394       -6.6879391294
 C        -6.9441870356       -3.1431456552       -8.8553757203
 C        -1.0548897068       -4.8828091305      -11.6176724559
 C         0.6937186347       -3.1149034658      -11.0650553787
 C        -1.0139263601        2.3111448143      -15.2033533616
 C        -2.3531407135        0.6765425898      -16.6237925314
 C         1.6494002543        0.7451721083      -21.3371824664
 C         2.8823494439       -0.8814144069      -19.7615596887
 C         9.4681161978        2.4066165170      -21.6796853980
 C         8.3097319308        4.6460794084      -21.0356488649
 C         2.6046886394        4.5101428107      -25.8406565297
 C         4.5866815212        3.4866495351      -27.0729230453
 H         2.5673460460        6.0582186584      -28.0303384106
 H         3.9614279381        5.4697473595      -28.8120757850
 H         3.8189570121        7.2975831227      -28.6273325337
 H         6.6599628334        6.0678674434      -25.1706941325
 H         6.8182619476        4.2943065816      -25.6013913923
 H         6.3612166028        5.1503342285      -22.7532593836
 H         7.7604430089        5.8530446939      -23.4301191051
 H         7.6703875011        0.7382366824      -20.1391628102
 H         7.4438823463        0.5823264497      -21.9215933196
 H         5.5369523428        0.4782031515      -19.5659291814
 H         5.6004307791       -0.7794443988      -20.7249550157
 H         3.5869246360        1.9414634235      -17.3794127354
 H         2.7612161405        0.4296101415      -17.4955035385
 H         1.0501591574        3.0747746738      -17.7851779000
 H         1.4667052789        2.4955058207      -16.1823742486
 H        -1.5931024169       -1.7008585182      -15.1527126354
 H        -2.0414341939       -0.3949044064      -14.0796874144
 H        -0.1826010237       -0.9121940061      -12.5400761462
 H         0.3716779232       -2.1381063111      -13.7400106184
 H        -2.4747879876       -3.7912631193       -8.5291667868
 H        -3.0787661724       -4.3757004087      -10.2024811463
 H        -4.8782890472       -2.5622342787      -10.0320998290
 H        -3.8313565853       -1.5966103828       -9.2918515623
 H        -6.0682479942       -6.1431754552       -7.3064998651
 H        -7.3119422919       -5.5732192063       -8.3055839044
 H        -7.5269347719       -6.4623346143       -5.3378967613
 H        -7.9948814130       -7.4310972051       -6.8046656403
 H       -10.9570022165       -7.1438348638       -3.1330217360
 H       -11.8911601272       -5.5886827333       -2.9244666160
 H       -10.6853595778       -5.4779320426       -0.8979679024
 H        -9.2834226330       -5.2627402977       -1.9113872469
 H        -6.4634979246       -8.4621159837       -1.1010866432
 H        -5.9305816966       -8.3933126006        0.5571908619
 H        -3.8979027430       -7.3792476637       -0.7330832094
 H        -4.7923561709       -6.1415896173        0.0256726711
 H        -2.7025219224       -2.9820515663       -3.9262019920
 H        -2.1240234252       -3.2567736480       -2.3263756326
 H        -4.2916002681       -1.2484753735       -2.6213870088
 H        -2.7330542139       -0.9446208933       -2.4396122339
 H        -6.2621165572       -0.8765052567        1.9837728385
 H        -6.0505408242       -2.0552331062        0.6644665308
 H        -7.3413112669        0.4546150866       -0.2138630754
 H        -8.3194651780       -0.4125023197        0.9679729741
 H        -8.1854497368        0.4917463463       -5.0255631843
 H        -8.9179858070        1.4359839727       -3.7224366138
 H       -10.9525615936        0.1021774260       -4.0622591035
 H       -10.1885321433       -0.8474034932       -5.2730751834
 H       -12.8102101298        0.2777826190       -9.4868176529
 H       -12.4517852212       -1.4774535115       -9.3833374669
 H       -11.2140303329       -0.1504735466       -9.5000808247
 H       -13.0104123536       -0.6558448303       -4.8417711441
 H       -14.2015616099        0.4064672122       -5.3391488980
 H       -12.8962425352        1.1005206109       -4.4871954817
 H       -12.0895826454        2.3290810555       -7.8548298113
 H       -13.2702488803        2.6136535642       -6.3746030757
 H       -13.6920427092        1.6328019002       -7.9077689278
 H       -10.9223545529       -1.4398890787       -2.7181235490
 H       -10.8509056458       -1.5982105694       -0.9080281887
 H       -10.1383211964       -2.7646499961       -2.0758737165
 H       -10.4162250929        0.9232607592       -2.0452199136
 H        -8.7115132258        1.2861378389       -1.4310225432
 H        -9.9274770210        0.4691705992       -0.5202828910
 H        -3.6914186301       -1.1238892267        2.5771903388
 H        -2.2269046741       -1.9346530655        1.8652192480
 H        -3.8279501729       -2.7344000816        1.7351933199
 H        -1.5625597151       -0.6171895542       -0.5821085173
 H        -1.8420805753        0.0008731200        1.0580901340
 H        -2.5246204328        0.8062386585       -0.2621327818
 H        -2.6305027510       -7.1709980114       -2.0075795214
 H        -2.2225604248       -5.4564006449       -1.6484788871
 H        -1.7681367665       -6.1754087775       -3.1753752076
 H        -4.4668135913       -7.2261059375       -4.4848874480
 H        -3.3414770244       -6.0644533110       -5.2054106882
 H        -4.9799821161       -5.5754525177       -4.9374215370
 H        -9.4271894845       -5.6157623958        0.9789478103
 H        -9.1775641846       -7.0398107956        2.1358998661
 H       -10.6120578291       -6.9883148458        1.0127565974
 H        -8.0743903790       -9.5910544445       -0.1333701641
 H        -9.7763838046       -9.3445354266        0.5571651946
 H        -8.4544590057       -9.0665068542        1.5431937106
 H       -12.3165536501       -5.3742064042       -7.1208655578
 H       -11.6657930594       -3.9582155990       -6.2946606997
 H       -12.7343855119       -5.0739617789       -5.3865468835
 H       -11.7877534882       -7.4766195700       -6.6361853484
 H       -11.7256496874       -7.7169057025       -4.8153211617
 H       -10.2842747241       -8.0336962760       -5.6768937278
 H        -7.7408916272       -1.7815425454       -6.5155935419
 H        -6.6775526099       -0.8280013530       -7.2199595580
 H        -6.1111102108       -1.5228102241       -5.8134123501
 H        -6.6671531593       -3.9945163770       -9.4929955308
 H        -6.8013042327       -2.1681030593       -9.3625436569
 H        -8.0839638894       -3.2034670059       -8.8159452585
 H        -0.9477610265       -5.4638984850      -10.7043474382
 H        -0.4009422059       -5.1962891921      -12.4565707595
 H        -2.0663729900       -4.9087881895      -12.0289823537
 H         0.8062808548       -2.0809920206      -10.7541354832
 H         1.4042718248       -3.3201873024      -11.7371086121
 H         1.0571354447       -3.5975238328      -10.1438041247
 H        -0.1587186454        2.5416990507      -14.5489291546
 H        -1.8923376707        2.4848559879      -14.6097388461
 H        -1.0421481868        3.2532843322      -15.7769712433
 H        -2.2621288102       -0.2136251371      -17.2487963974
 H        -2.7221372032        1.5017415814      -17.1924765929
 H        -3.0068072648        0.4457086750      -15.7697777795
 H         1.8553820475        0.1138970181      -22.2120241183
 H         1.5235134830        1.7532265525      -21.7693977048
 H         0.7650113771        0.4068169540      -20.7329269683
 H         2.7532151391       -1.5844125341      -20.5950254422
 H         2.0720749742       -0.7850519349      -19.0991875089
 H         3.8521661255       -1.1772093471      -19.3333055556
 H         9.4998044377        1.6565729002      -22.4720188132
 H         9.5402008107        1.8622488859      -20.7462907750
 H        10.2755165273        3.0866772988      -21.6510287500
 H         8.8209693658        5.4197596439      -21.5098405651
 H         8.9491993183        4.4681588930      -20.1987930434
 H         7.3360794218        5.1046278306      -20.9138912706
 H         1.9409129248        4.5360579502      -26.6755049104
 H         2.2973040544        5.3343327716      -25.2456102961
 H         2.6793134315        3.6098311133      -25.2720205940
 H         5.6171196524        3.7444747039      -27.4483076897
 H         3.9406783160        3.1860652157      -27.9479739551
 H         4.8490528123        2.6477505124      -26.4876616115
 Na       -7.5289254182       -3.8278983590       -3.2326263018
 Na        3.5901741147        3.6813100732      -21.9044027353
