232

 C         3.5773973731        6.2690572051      -28.3615853114
 C         4.4081679650        6.0390662595      -26.9837802716
 O         5.2772007939        6.8808164407      -26.6946083346
 C         4.1602944092        4.7815338354      -26.0311207426
 C         4.9269698037        4.6678822420      -24.7616561060
 O         4.3347596920        4.7568023432      -23.6670890147
 C         6.4762382703        4.9845760589      -24.8845528838
 C         7.0038523190        4.9798058688      -23.4586866022
 C         7.9818188732        3.8345679659      -23.2690934807
 O         8.3716283735        3.2051587424      -24.2692291048
 C         8.2289898073        3.3055173735      -21.7980765643
 C         6.8689734450        2.5695530039      -21.3002744532
 O         5.9423353069        3.1733275118      -20.9764005557
 C         6.9194875456        1.0559066716      -21.0838439504
 C         5.6447454284        0.3325047127      -20.6430860573
 C         4.2197543941        0.8468605550      -21.2626356674
 O         4.2202058758        1.5982129729      -22.1850267560
 C         2.8758929916        0.5278314816      -20.5082964504
 C         2.6956128729        1.7699962446      -19.4520315316
 O         2.5944081628        2.9245851467      -19.8053417579
 C         2.6444984178        1.5320441852      -18.0012903713
 C         1.2979759654        2.0266127075      -17.3148262295
 C         0.1109575322        1.1134349732      -17.3493891415
 O        -0.0323430041        0.2569348067      -18.2301948299
 C        -0.8911956171        1.0495525647      -16.2146074470
 C        -0.2959843005       -0.0600648627      -15.2795438132
 O         0.9035169765       -0.1157898112      -15.1821588217
 C        -1.2826117431       -0.9625285798      -14.5250408755
 C        -0.6013341963       -1.5873464261      -13.3253991301
 C        -1.4392576348       -2.7148819080      -12.7509901310
 O        -2.5148000482       -3.0587952578      -13.2161274768
 C        -1.0273115036       -3.2939128959      -11.3907265262
 C        -1.8690850974       -2.6006516477      -10.3872178353
 O        -1.8061594261       -1.3911164782      -10.2716772953
 C        -2.8322209255       -3.3927392325       -9.4793724998
 C        -4.1791434012       -2.6398073376       -9.1037237385
 C        -4.7326390207       -3.1962997282       -7.7446899029
 O        -3.9221103936       -3.6868576886       -6.9674453261
 C        -6.3359201763       -2.9926711017       -7.5001657144
 C        -6.7704862494       -4.2763766196       -6.5501733068
 O        -6.9038913270       -4.0702750706       -5.4006346390
 C        -7.0380254211       -5.6428116835       -7.2225038152
 C        -8.1236718410       -6.3468596743       -6.3940065908
 C        -9.4452507638       -5.8403836547       -6.8357863819
 O        -9.5993204641       -5.3454855929       -7.8929363325
 C       -10.6902819779       -6.0354035446       -5.7268101399
 C       -10.2857315807       -5.5332910357       -4.2499856796
 O        -9.4287604999       -4.6702387052       -4.1406466871
 C       -10.8839961276       -6.1515240980       -2.9873153961
 C        -9.9911656742       -5.9933722838       -1.7110008399
 C        -9.3449510382       -7.2818249138       -1.2847902015
 O        -9.3047156490       -8.1507755519       -2.1392167240
 C        -8.7890855197       -7.4916196838        0.2124252431
 C        -7.3099056796       -6.9179079134        0.2470624019
 O        -7.1236807345       -5.8243988147        0.7600076404
 C        -6.1612748932       -7.7572545356       -0.3682591017
 C        -4.9121526506       -7.0250337451       -0.7564896274
 C        -5.1381467983       -6.1741584153       -2.0598704931
 O        -6.3261519574       -5.8662348967       -2.2370448387
 C        -3.9529962963       -5.7104621897       -2.9530551683
 C        -4.0705912577       -4.1217931929       -3.1885267062
 O        -5.1066283142       -3.5831900239       -3.2877614626
 C        -2.7397141044       -3.1737911367       -3.0585906309
 C        -3.3121086643       -1.8855674805       -2.3064188875
 C        -3.6746385997       -2.0885152124       -0.8486066099
 O        -4.0691053569       -3.1781012702       -0.4874710717
 C        -3.3655147007       -0.9548374280        0.3655017400
 C        -4.8467387476       -0.2421753123        0.2967501773
 O        -4.9831503200        0.7622604556       -0.3584509282
 C        -6.0849552474       -1.0345377454        0.9482254547
 C        -7.3909628923       -0.4689443849        0.1925106844
 C        -7.8882116655       -1.3357622783       -0.9679335204
 O        -7.3314515784       -2.3332629704       -1.1925393794
 C        -9.0568013303       -0.7875088528       -1.8953902042
 C        -8.4203972508       -0.6976043958       -3.4535400467
 O        -7.8542318414       -1.6416719078       -3.9253686672
 C        -8.8509539433        0.4942374771       -4.2909846650
 C       -10.2542281050        0.0856262814       -4.9665009183
 C       -10.8148105012        0.9788075353       -6.0680199455
 O       -10.1847882208        1.9482148477       -6.4592905312
 C       -12.1938267697        0.7145873900       -6.5429027744
 C       -12.0682614889       -0.5673134376       -7.4584956606
 O       -11.5601286204       -1.5824672542       -6.9828149499
 C       -12.2727213363       -0.4586708972       -8.9459932362
 C       -13.1011144761        0.3914947080       -5.2440253822
 C       -12.8899510182        1.9326947311       -7.2253106822
 C       -10.2660479316       -1.7448346659       -1.7955200735
 C        -9.4006065045        0.6421378727       -1.4745995669
 C        -3.2159553966       -1.7655071943        1.7182981192
 C        -2.1779450505       -0.0689379724        0.0359226839
 C        -2.5832430023       -6.2103105912       -2.5059384532
 C        -4.0665748579       -6.2184763239       -4.4050419985
 C        -9.7592480209       -6.9448403628        1.3777055649
 C        -8.5059298031       -9.0610607804        0.4687280773
 C       -11.9152266976       -5.0060849035       -6.1344484574
 C       -11.1954014179       -7.4488896504       -5.7787636294
 C        -6.7064369628       -1.7198969110       -6.6696409509
 C        -7.0672018048       -3.0269830309       -8.8557703208
 C        -1.1437008366       -4.8676827176      -11.5849021153
 C         0.4256399246       -2.9631305470      -11.0541301005
 C        -0.8939474812        2.2519154686      -15.2509644248
 C        -2.3116533650        0.7267115435      -16.6695679850
 C         1.6416045863        0.6754032713      -21.3832146394
 C         2.9200806673       -0.8995424193      -19.9081786580
 C         9.4730190357        2.4481140567      -21.5936514258
 C         8.4544713720        4.6116770752      -20.8915253331
 C         2.5763190378        4.5814569028      -25.7517372682
 C         4.5846397833        3.5710023006      -27.0551517424
 H         2.5195374199        6.4553258771      -28.2447931005
 H         3.5848168566        5.3255457734      -28.9112168945
 H         4.0912631699        7.1207844975      -28.8433708800
 H         6.6757280103        6.0254102118      -25.2518417715
 H         6.9636934096        4.2613623814      -25.4975587409
 H         6.1941963984        5.0313668655      -22.7601713241
 H         7.5617002590        5.9433158148      -23.2980000451
 H         7.6659883087        0.8931246753      -20.3164259746
 H         7.4765166954        0.6207935916      -22.0598557314
 H         5.6090486695        0.1849225202      -19.5414526156
 H         5.7533564084       -0.7417643299      -21.0223131310
 H         3.4593797033        2.1264228704      -17.5967641742
 H         2.9649293964        0.5165770623      -17.7797635523
 H         1.2020704952        3.1047552981      -17.6368235121
 H         1.5368909447        2.1326438767      -16.2488800706
 H        -1.7975976056       -1.5348354982      -15.3047164170
 H        -2.0209821496       -0.2184670661      -14.1514096392
 H        -0.5941692154       -0.8924884528      -12.5450308762
 H         0.4046545695       -1.8371803368      -13.6157653591
 H        -2.3820931774       -3.7828246603       -8.5852681311
 H        -3.0039360506       -4.2025991922      -10.2077789025
 H        -4.8670044347       -2.6848384133       -9.9749654416
 H        -4.1093485403       -1.5771304253       -9.0705524293
 H        -6.1281176010       -6.2199202549       -7.2398032258
 H        -7.2865814455       -5.5407203451       -8.3016670149
 H        -7.8444015798       -6.0581043674       -5.3620339918
 H        -8.0377876703       -7.5123126605       -6.3877368194
 H       -11.1668595196       -7.1853960456       -2.9858807882
 H       -11.7860555241       -5.4775764184       -2.7811808050
 H       -10.6215696983       -5.6464452919       -0.9058427947
 H        -9.1508732978       -5.2841009248       -1.9225223301
 H        -6.5299723617       -8.2942887565       -1.2865398336
 H        -6.0991482550       -8.4951507943        0.4213029123
 H        -4.0015479743       -7.6519494949       -0.9510395572
 H        -4.5453521545       -6.2883932616       -0.0840250606
 H        -2.4804187325       -2.7707178746       -4.0782462320
 H        -1.8642264237       -3.5117777820       -2.5576854554
 H        -4.1817714178       -1.4687877833       -2.7622669360
 H        -2.6920859551       -1.0521190066       -2.3891889293
 H        -6.0837316629       -0.7376938381        2.0220020420
 H        -5.9621957177       -2.1046680992        0.9028632024
 H        -7.1653876229        0.4936173202       -0.2739943584
 H        -8.1674834764       -0.2658615715        0.9809832789
 H        -8.1949795148        0.5119248497       -5.1839987249
 H        -8.9532324646        1.5143266469       -3.8339449525
 H       -10.9866343238        0.2185482213       -4.1244682439
 H       -10.2661736947       -0.9895769842       -5.0959875985
 H       -13.2609287602       -0.1319105045       -9.2045240960
 H       -12.2667137759       -1.5151501438       -9.3713642812
 H       -11.7379075465        0.2801187064       -9.5735977491
 H       -13.1701998514       -0.5680817902       -4.9648765953
 H       -14.1391140695        0.5715232256       -5.5527553077
 H       -12.9015386031        1.0595256267       -4.3952167006
 H       -12.1402618383        2.5209481662       -7.8372639146
 H       -13.3201900665        2.5093182175       -6.4124483729
 H       -13.7186848301        1.6413347769       -7.9019792246
 H       -10.9665576719       -1.6031068203       -2.6709353671
 H       -10.7764289523       -1.7766325750       -0.7766050662
 H        -9.8994261019       -2.7499230434       -2.0708820578
 H       -10.3937586899        0.9433554946       -1.7507627950
 H        -8.5221535617        1.2034667414       -1.8430824613
 H        -9.4234098390        0.6278525077       -0.3692038973
 H        -3.3266003887       -1.0219883995        2.5257759521
 H        -2.1721971905       -2.2024637935        1.7770348210
 H        -3.9187277900       -2.5346470069        1.8238663575
 H        -1.5939596180       -0.5328556536       -0.8169860665
 H        -1.5965144109        0.0887468368        0.8779791658
 H        -2.5008289900        0.8978795783       -0.2916157861
 H        -2.4986941240       -7.3189866300       -2.6787039427
 H        -2.2962690649       -5.8981025318       -1.4313662740
 H        -1.8524457976       -5.7890101323       -3.1546077309
 H        -4.2097406644       -7.3225164637       -4.5427351407
 H        -3.1284853876       -5.9745324852       -4.8946211229
 H        -4.7775427368       -5.7234442776       -4.9770896302
 H        -9.6069374799       -5.8864074969        1.4125595041
 H        -9.3493515295       -7.4022126254        2.2301288044
 H       -10.7993426847       -7.2595803499        1.1494203634
 H        -8.2304987795       -9.6656998930       -0.4260743962
 H        -9.4836026821       -9.2272074611        0.8857912560
 H        -7.8436351944       -9.2463067005        1.3241308622
 H       -12.4945427477       -5.4191754120       -6.9600454295
 H       -11.5319144804       -4.0392513144       -6.4854518959
 H       -12.5559936879       -4.8282597267       -5.2258020225
 H       -11.5847345023       -7.7392532699       -6.7085435476
 H       -11.9569647103       -7.6658414392       -5.0056589122
 H       -10.3972928341       -8.1295160589       -5.3876487976
 H        -7.7315918332       -1.6710281024       -6.3689714288
 H        -6.6464282269       -0.7766361249       -7.1168497741
 H        -6.0482724725       -1.5717032851       -5.8656595615
 H        -6.7169683720       -3.8709931944       -9.4937555569
 H        -6.9535773759       -2.0380077765       -9.4364670201
 H        -8.1383255866       -3.2087997448       -8.8234889430
 H        -0.8024959871       -5.3341017479      -10.7314180979
 H        -0.5508987312       -5.2258274713      -12.4642810889
 H        -2.1990274687       -5.0296582967      -11.9155972098
 H         0.6198421195       -2.0734971669      -10.4767201809
 H         1.0539477481       -2.9154118265      -11.9507189251
 H         1.0179473095       -3.7046912354      -10.5010122122
 H         0.1212663534        2.5464091601      -14.9009252292
 H        -1.4948546676        2.2973605590      -14.4088141247
 H        -1.1550398656        3.0821603821      -15.7509004907
 H        -2.2396380388       -0.2972494631      -17.1201466765
 H        -2.4927369816        1.4982357398      -17.4455229163
 H        -3.0890756750        0.7368410138      -15.9095557161
 H         1.6884310775        0.0197452276      -22.3462436754
 H         1.6554964156        1.6633304505      -21.7486483664
 H         0.7202184600        0.5136990644      -20.7520302922
 H         2.9491903609       -1.5358114946      -20.7847714176
 H         1.9893200617       -0.9765014900      -19.3245868474
 H         3.8839107015       -1.1180258517      -19.3838147075
 H         9.6687709540        1.6282853731      -22.3376645175
 H         9.4072206247        1.9477577111      -20.6580588091
 H        10.2439134114        3.2308242625      -21.5820887161
 H         8.9627396614        5.4599055836      -21.3532257220
 H         9.0256437202        4.4741371991      -20.0516836181
 H         7.5307570222        5.0420580701      -20.8048298604
 H         2.1404488535        4.7995620784      -26.6804090283
 H         2.1626470559        5.2615367959      -25.0488655610
 H         2.5203840495        3.5338849302      -25.4697130057
 H         5.7308292177        3.4236406585      -27.0751549482
 H         4.1570209173        3.5318080567      -28.0168066157
 H         4.3697245435        2.6679504459      -26.4456923197
 Na       -7.4083040997       -3.6900156704       -3.1512117729
 Na        3.4878154577        3.6248330413      -21.7481664451
