232

 C         3.4709294614        6.1180044794      -28.2660757698
 C         4.3542162962        6.0334975124      -27.0370792713
 O         5.3266583319        6.6891741833      -26.8450148387
 C         4.0491299140        4.7788593420      -26.0553591450
 C         4.8511591802        4.8100733316      -24.6743561060
 O         4.0992879286        4.6816903088      -23.7250605716
 C         6.4084421322        4.9632679299      -24.7122807448
 C         7.1329567767        5.0848566594      -23.3248974377
 C         7.8763892630        3.7809038446      -23.0224473238
 O         8.4199664664        3.1267511648      -23.8913290215
 C         8.2399408725        3.2913495726      -21.5579804675
 C         6.9591398469        2.6254032807      -21.1933354055
 O         5.9564598091        3.3715480949      -20.8300772403
 C         6.7633350898        1.1627153009      -21.4260480007
 C         5.5403393005        0.4885835273      -20.7685741398
 C         4.2592014900        0.9716673679      -21.3656600548
 O         4.2223879043        1.5339326186      -22.4681850947
 C         2.9072368422        0.6299372648      -20.6203238632
 C         2.6006270548        1.6620338089      -19.5574379394
 O         2.3692242352        2.8310568934      -19.8268492684
 C         2.5770943250        1.3370486878      -18.0491091981
 C         1.3763869849        1.9157424883      -17.3431245420
 C         0.1631131463        1.0419086507      -17.4539390667
 O         0.1235155781        0.2617931515      -18.3674005836
 C        -0.8703302748        1.1600087777      -16.2696222039
 C        -0.3938848807        0.1046562881      -15.2271466862
 O         0.8000648339        0.0845187759      -14.8983605139
 C        -1.3823213912       -0.9177051710      -14.6597428621
 C        -0.7756633680       -1.5090537574      -13.3907078605
 C        -1.5811047856       -2.7179246221      -12.9122484743
 O        -2.5859706702       -3.0716442886      -13.4931659080
 C        -1.1350458182       -3.2801149245      -11.4764596027
 C        -2.0186851285       -2.5536434817      -10.3315845888
 O        -2.0046452905       -1.3315535070      -10.3196111103
 C        -2.8902482416       -3.3173653253       -9.3476328343
 C        -4.0566006610       -2.5350984808       -8.9039679906
 C        -4.7939760282       -3.1673863939       -7.6979602455
 O        -4.2224541868       -3.4839771086       -6.6855158742
 C        -6.3640126900       -3.1288580859       -7.4828982734
 C        -6.7500874927       -4.2538362772       -6.5314626203
 O        -6.8005839335       -4.0346340964       -5.3384856173
 C        -6.9267986511       -5.7140920263       -7.1302042677
 C        -8.0941947338       -6.5064690015       -6.3927947058
 C        -9.5267258653       -5.9693942185       -6.6133158229
 O        -9.8316125132       -5.5034327247       -7.7375266486
 C       -10.7035660811       -6.0930381433       -5.5636086307
 C       -10.1570610352       -5.6632281517       -4.2172431402
 O        -9.2547246605       -4.8553088876       -4.1743916134
 C       -10.7850181142       -6.3000709537       -3.0034810945
 C        -9.9671408174       -6.2287786891       -1.6206152296
 C        -9.2104991607       -7.4576328755       -1.2703920482
 O        -9.0171927774       -8.2615288629       -2.1447505205
 C        -8.7851166530       -7.7408153309        0.1766007643
 C        -7.3641937723       -6.9193463125        0.2274583395
 O        -7.3314989931       -5.7997869143        0.6426780930
 C        -6.1857472016       -7.7460897615       -0.4077322135
 C        -5.0047960807       -7.0946491106       -0.9212482989
 C        -5.2481263692       -6.1601598011       -2.1368048359
 O        -6.3149326031       -5.7832065830       -2.4609195539
 C        -4.0137335256       -5.7180404361       -2.9366989709
 C        -3.9880439251       -4.0399930699       -3.0020963952
 O        -5.0371691161       -3.4769626208       -3.2050972148
 C        -2.6935367901       -3.2963707263       -2.9562287053
 C        -2.8413812129       -1.9468318822       -2.2091791241
 C        -3.4519329179       -2.1663108898       -0.8211508899
 O        -3.8151665821       -3.2761523465       -0.5026740470
 C        -3.3158380327       -0.9285165408        0.1719936492
 C        -4.6925161463       -0.2344797774        0.1134982181
 O        -4.7041259112        0.8737656934       -0.3566958258
 C        -5.9417436594       -0.9425583307        0.6974031595
 C        -7.2791557847       -0.4335783693        0.2292616034
 C        -7.6555980284       -1.1266273409       -1.0182492229
 O        -7.2211078049       -2.2918264724       -1.1140207878
 C        -8.7684098896       -0.5816712824       -1.9471697785
 C        -8.3895979671       -0.6350023630       -3.4255152207
 O        -7.8627388878       -1.6651675982       -3.7830398693
 C        -8.9035720668        0.4174621464       -4.4561287911
 C       -10.3141842159        0.0698821565       -4.9660426585
 C       -10.7914570186        1.0261178996       -5.9937497619
 O       -10.1740063047        2.0140513035       -6.3218214478
 C       -12.3035214871        0.8029365780       -6.4987595669
 C       -12.1110278107       -0.4547365855       -7.4835091982
 O       -11.6719894762       -1.4850299257       -7.0455128630
 C       -12.6953078872       -0.4793464123       -8.8728246469
 C       -13.3665581060        0.2408299283       -5.4891002674
 C       -12.7635243684        2.0111230655       -7.3110090213
 C        -9.8925127744       -1.6617452644       -1.7487995625
 C        -9.4203019187        0.7871422173       -1.4463410755
 C        -3.1170459728       -1.5524234467        1.5783346257
 C        -2.2263784235        0.1525299813       -0.1872423597
 C        -2.7005453238       -6.2037687687       -2.3123326609
 C        -4.3424751573       -6.2522617690       -4.2947569187
 C        -9.7030681106       -7.1677628435        1.2941707887
 C        -8.6316790442       -9.3013831572        0.2931604127
 C       -11.7738697226       -5.1329594420       -6.0167044255
 C       -11.1696990747       -7.5826119197       -5.7610957264
 C        -6.3796630410       -1.6838380152       -6.7414929826
 C        -7.3260769387       -3.0763093961       -8.7951874751
 C        -1.3533151300       -4.7792681647      -11.3380119207
 C         0.3096086248       -2.9873947389      -11.1616808118
 C        -0.9136463234        2.5377440897      -15.5737208493
 C        -2.3065393212        0.9379325604      -16.8588237100
 C         1.8018880369        0.6262724411      -21.6820372970
 C         2.9569804847       -0.7879137158      -19.8822965729
 C         9.5502510636        2.3800163227      -21.7286389186
 C         8.4759092547        4.4786219670      -20.6351478042
 C         2.4259820551        4.7189862363      -25.8022411783
 C         4.5060765286        3.4590576526      -26.7236677988
 H         2.7466226935        6.9297331874      -28.0285000358
 H         2.7741127866        5.3095659720      -28.3474774111
 H         4.0689624057        6.4351674924      -29.0926726684
 H         6.3488101615        5.9433490986      -25.1034710916
 H         6.9986098951        4.2993143819      -25.3734994524
 H         6.3452616529        5.2345227991      -22.5106636394
 H         7.7961744940        5.9371954522      -23.2418642623
 H         7.7320737671        0.6930726220      -21.1769685158
 H         6.6694406384        1.1234550146      -22.4338993247
 H         5.4447041887        0.5182938872      -19.6866490399
 H         5.5819235652       -0.5524334558      -21.0354541788
 H         3.4824231081        1.8351574373      -17.6889961908
 H         2.7077710483        0.2934284946      -17.8078006622
 H         1.2805522921        2.8936261908      -17.7448296641
 H         1.6605301638        2.0518573709      -16.3075130420
 H        -1.6772198027       -1.5990461803      -15.4702369930
 H        -2.2694644608       -0.3334092282      -14.4321907470
 H        -1.0073921687       -0.7576108023      -12.5750062506
 H         0.3215327810       -1.6219376488      -13.5396935507
 H        -2.1982918381       -3.5088618242       -8.5076131232
 H        -3.1095922790       -4.2845083698       -9.7473684217
 H        -4.6807180423       -2.5799816091       -9.7797617233
 H        -4.0582995948       -1.4353227516       -8.7426103303
 H        -5.9375076428       -6.2115106908       -6.9990114500
 H        -7.1715961307       -5.7924673083       -8.1783475006
 H        -7.8279450629       -6.5618021964       -5.3475530357
 H        -8.0175679743       -7.4691446833       -6.6932605595
 H       -10.9845088746       -7.3908476376       -3.0905466611
 H       -11.6831008250       -5.7684923203       -2.8699577818
 H       -10.6860090522       -5.9241404786       -0.8057577367
 H        -9.1713315715       -5.4687986295       -1.7511193378
 H        -6.5876742729       -8.3481807609       -1.2221122015
 H        -5.9933429081       -8.4732099130        0.4170449301
 H        -4.2011738635       -7.7524337342       -1.1882146633
 H        -4.4985511842       -6.4013751302       -0.1917616574
 H        -2.3008209234       -2.8630529850       -3.8677768291
 H        -1.9797388887       -3.9647751413       -2.3621306625
 H        -3.3610417535       -1.1157004323       -2.7898330832
 H        -1.8080289355       -1.4534513522       -2.1136510338
 H        -5.8068715102       -0.7718776945        1.7435436309
 H        -5.8628030164       -2.0487894382        0.5633878068
 H        -7.3052472163        0.6868155776       -0.0170761297
 H        -7.9994535472       -0.6027147728        1.0364265251
 H        -8.3763700219        0.5738952995       -5.3960234422
 H        -9.0491057482        1.4109587551       -3.9912778236
 H       -10.9528899632       -0.1361428739       -4.1195609369
 H       -10.3725450242       -0.9119837915       -5.5052318819
 H       -13.7241663736       -0.9081022041       -9.0412287498
 H       -12.0871958762       -0.9449049188       -9.5731060128
 H       -12.8473926246        0.4863528892       -9.2794153589
 H       -13.0397714536       -0.7039885482       -4.8855247724
 H       -14.2739911062       -0.1111889358       -5.9977541877
 H       -13.6312460940        1.0177301167       -4.7577275132
 H       -12.0873501293        2.1745370312       -8.0846161956
 H       -12.7856881293        2.9640881747       -6.7503124927
 H       -13.7812383335        1.8761453670       -7.5917703503
 H       -10.8374193998       -1.4125866296       -2.1924857568
 H        -9.9747573905       -1.7235206925       -0.6938207173
 H        -9.6655910076       -2.6476203259       -2.1828072923
 H       -10.1824874596        0.9931721531       -2.2449459525
 H        -8.6264177754        1.5363762100       -1.3742691815
 H       -10.0365767429        0.6044829604       -0.5941213104
 H        -2.8528897791       -0.7748723693        2.2560574052
 H        -2.3209891424       -2.2147028970        1.5013393559
 H        -3.9542110877       -2.2159830934        1.9182604397
 H        -1.3131434092       -0.3623669917       -0.4030311875
 H        -2.1416047816        0.6831575280        0.8219846179
 H        -2.4524640349        0.9507156953       -0.9575010222
 H        -2.5095097153       -7.2222758259       -2.5438699496
 H        -2.6244274721       -5.9709533466       -1.2714587896
 H        -1.8455848303       -5.7868336880       -2.9162641132
 H        -4.1423426888       -7.2824086442       -4.3959858742
 H        -3.7906395329       -5.8068598707       -5.1152552882
 H        -5.4444609600       -6.1214052613       -4.5176651582
 H        -9.7597942046       -6.0677833696        1.3048022058
 H        -9.2645615789       -7.5405175309        2.2421544386
 H       -10.5722763548       -7.6811609408        1.0491206268
 H        -8.2131073448       -9.5403907486       -0.6687146596
 H        -9.5924100744       -9.7742938360        0.5721912082
 H        -7.8552914845       -9.4949274044        1.0262703782
 H       -12.1289624637       -5.4303735091       -7.0159708411
 H       -11.3529929657       -4.1294276832       -6.1352778819
 H       -12.5263386713       -5.0876597029       -5.2526601838
 H       -10.9306122564       -7.9307126151       -6.7516364644
 H       -12.2167081960       -7.7032322249       -5.7680469920
 H       -10.7116516704       -8.2668520369       -5.0750893886
 H        -7.3352245755       -1.1681447393       -6.6238389244
 H        -5.7200904238       -0.9067113424       -7.1862705802
 H        -5.8535499887       -1.7128741223       -5.8040907350
 H        -7.1781954342       -3.9382133423       -9.4015492228
 H        -7.1598795549       -2.2325033624       -9.3738351082
 H        -8.3903500974       -3.1403425145       -8.5419798123
 H        -0.9650392054       -5.1103449379      -10.3155520315
 H        -0.6146351574       -5.2930449513      -11.9878305562
 H        -2.2666555526       -5.0455988237      -11.8174465015
 H         0.4531132747       -1.8691782673      -11.1150170612
 H         1.0490076485       -3.3768235074      -11.8136459549
 H         0.7238932374       -3.2640871756      -10.1782474623
 H         0.0331878619        2.9682968504      -15.2393555142
 H        -1.4247945839        2.5371317320      -14.5816671747
 H        -1.4023610903        3.4000805090      -16.1647524564
 H        -2.4196484402       -0.0718768397      -17.2212639249
 H        -2.3758075368        1.7339631651      -17.5843297290
 H        -3.1024038690        1.1108047349      -16.0980938913
 H         1.8921187215       -0.2008610396      -22.2982658809
 H         1.7825991182        1.6042747967      -22.2422517834
 H         0.9057791648        0.5872796064      -21.1203860781
 H         3.3449180374       -1.5895619333      -20.5470398968
 H         1.9573197830       -0.9543453422      -19.5008533595
 H         3.6658530111       -0.5999264251      -19.1058064242
 H         9.2368269548        1.4703131599      -22.2560093774
 H         9.9386831421        1.9400096397      -20.7638182315
 H        10.2047642516        2.9264059740      -22.4224391243
 H         9.4593198125        4.8970760020      -20.8320758860
 H         8.6365676090        4.1535347166      -19.5328739606
 H         7.8555958295        5.4507782895      -20.6782245889
 H         1.9793989585        4.8163357553      -26.8203263433
 H         2.0550320501        5.5502165143      -25.1572798846
 H         2.2959666888        3.7381903880      -25.3615882318
 H         5.5527634623        3.3371968261      -26.6394920652
 H         4.3619017105        3.6836481072      -27.8161781349
 H         4.0961048322        2.5166668950      -26.4591509739
 Na       -7.2508181699       -3.8752515250       -2.9795647336
 Na        3.6090364595        3.7286335078      -21.7276521027
