232

 C         3.4261068079        6.1105037698      -28.2126024973
 C         4.3692913143        5.9312401572      -27.0223355373
 O         5.3811594203        6.6681079443      -26.8912045967
 C         4.0276756559        4.7640704503      -26.0683811426
 C         4.7491799079        4.8334710374      -24.6314054353
 O         4.0591251356        4.6863629324      -23.6765315960
 C         6.2382230339        5.0789163943      -24.6172817450
 C         6.9925016058        5.0457513998      -23.2606154491
 C         7.9612795296        3.8222522611      -22.9579156492
 O         8.3136818343        3.1042404405      -23.8906969274
 C         8.2780065558        3.3080546130      -21.4676709658
 C         6.9002598132        2.6519769840      -21.1849861823
 O         5.9166642691        3.3355833026      -20.7549764129
 C         6.7255569952        1.1766106587      -21.6386762131
 C         5.6027245467        0.6154573336      -20.7768755454
 C         4.1854362909        0.9214709875      -21.4494218620
 O         4.1791250198        1.5643490263      -22.4898217796
 C         2.8790806129        0.5540083215      -20.6940260211
 C         2.5752302210        1.6982877960      -19.6448232691
 O         2.3586576648        2.8311311488      -19.9777529656
 C         2.6737202843        1.3582381921      -18.0554222173
 C         1.5389993745        1.9975731744      -17.2531104017
 C         0.2421147226        1.1535428732      -17.4412866786
 O         0.0855302805        0.3611344544      -18.3553622714
 C        -0.8897189431        1.2432235579      -16.3555245031
 C        -0.4697696324        0.2031940681      -15.2557891242
 O         0.6914844790        0.2602259997      -14.8292151223
 C        -1.4154600169       -0.9026403091      -14.6541680844
 C        -0.9128192642       -1.4723989964      -13.3561570290
 C        -1.6856390151       -2.6876655245      -12.8079227979
 O        -2.5358939081       -3.2896336702      -13.4531902058
 C        -1.1983624128       -3.2599942423      -11.4535900803
 C        -2.1114332905       -2.4687426655      -10.3452597989
 O        -2.1682709895       -1.2489539161      -10.3245077537
 C        -2.8940308631       -3.3188731413       -9.2830362299
 C        -4.1521393758       -2.5406607853       -8.8677381358
 C        -4.8648535714       -3.1195794172       -7.5990783623
 O        -4.1627225347       -3.5277475515       -6.7481840907
 C        -6.3625210024       -3.0292488347       -7.4453393598
 C        -6.7924420617       -4.2084545951       -6.5071819095
 O        -6.7974015896       -4.0893693576       -5.3244980547
 C        -7.0060460420       -5.6677682384       -7.0734854694
 C        -8.0335200178       -6.5363299719       -6.4142577400
 C        -9.4599165301       -5.9755280930       -6.6682821358
 O        -9.7268251942       -5.5642452191       -7.7445184079
 C       -10.6209708113       -6.1090413905       -5.5705719837
 C       -10.0458938545       -5.7670310694       -4.1163997292
 O        -9.1736538688       -4.9476285140       -4.0803934023
 C       -10.7462947380       -6.3535508584       -2.9111594627
 C       -10.0503704669       -6.2444021803       -1.5680575935
 C        -9.2235386935       -7.6014829679       -1.3921015866
 O        -8.8690010157       -8.3364857180       -2.2684428514
 C        -8.7738699168       -7.8411806942        0.0843377635
 C        -7.4443237403       -7.1454024804        0.1760034666
 O        -7.3444232915       -5.9471103139        0.4940460356
 C        -6.2278480474       -7.8773907937       -0.3454949965
 C        -5.0476077106       -6.9855090316       -0.7941474666
 C        -5.2347989900       -6.0318564123       -2.0533157894
 O        -6.4125432301       -5.9113962243       -2.4321345471
 C        -4.0262486306       -5.6370910792       -2.9377418572
 C        -3.9691165234       -4.0187572126       -2.9640384428
 O        -4.9304293465       -3.3835284447       -3.1580244465
 C        -2.5382579539       -3.3618518093       -2.9688072210
 C        -2.5654887528       -1.9948379483       -2.2819294956
 C        -3.1760779458       -2.1312276512       -0.8617897197
 O        -3.6629959305       -3.1853555548       -0.5370603597
 C        -3.1969047061       -0.9359764291        0.1917637728
 C        -4.6506672421       -0.1285795473        0.1229667888
 O        -4.7801357420        0.9217073347       -0.4302217766
 C        -5.8580885441       -0.8183952052        0.8014589375
 C        -7.1827116172       -0.3260352136        0.3042177008
 C        -7.6274561052       -1.1103862509       -1.0020611812
 O        -7.1883187131       -2.1753127275       -1.2126641056
 C        -8.8589130862       -0.6154814519       -1.8712057642
 C        -8.3704920765       -0.6842689655       -3.4014366766
 O        -7.7970438990       -1.6152278544       -3.9404200790
 C        -8.7764141410        0.4309024782       -4.4007834499
 C       -10.3060556909        0.0390962348       -4.8526525719
 C       -10.9203976670        0.9929243056       -5.9194338444
 O       -10.2888345149        1.9833769115       -6.2322103315
 C       -12.3171937648        0.7843851382       -6.6316048036
 C       -12.2168125101       -0.4895809565       -7.5537316940
 O       -11.6769340578       -1.4880601061       -7.1078037421
 C       -12.8822969641       -0.5280823101       -8.9438152572
 C       -13.3873999145        0.3691358051       -5.6308254470
 C       -12.7601077793        2.1229521461       -7.2513434992
 C        -9.9457823233       -1.6561481646       -1.7029144024
 C        -9.3367012935        0.8064028940       -1.4758402536
 C        -2.9833672579       -1.4251286867        1.6676747656
 C        -2.1570025700        0.0108377982       -0.2551885899
 C        -2.7072027301       -6.2660344854       -2.3438295290
 C        -4.3248954479       -6.1139976623       -4.3722225081
 C        -9.7383479835       -7.1672246694        1.2740833386
 C        -8.6750163688       -9.3973393491        0.3634388688
 C       -11.8682795514       -5.1696214325       -5.9000050862
 C       -11.1323039814       -7.5993582962       -5.6021093853
 C        -6.4753264969       -1.6779736021       -6.7313987004
 C        -7.2298081528       -3.1384823992       -8.7687275111
 C        -1.4845822845       -4.8242177395      -11.3931869726
 C         0.2900710625       -3.0152477735      -11.2335370760
 C        -0.9505235433        2.6532262241      -15.8476045398
 C        -2.3271109786        0.9298691440      -16.9670219523
 C         1.7637629784        0.6064638820      -21.7750970228
 C         3.0717645839       -0.8873644090      -20.0746947759
 C         9.4080252513        2.3501652090      -21.5984553789
 C         8.6177932722        4.4766272752      -20.4817424739
 C         2.5080729335        4.7635611878      -25.7841884402
 C         4.4008254023        3.3149116770      -26.6627473463
 H         2.8805295638        7.0912720457      -28.0761385788
 H         2.6162024851        5.4424434356      -28.3082899158
 H         4.0986386988        6.2891770057      -29.0267838049
 H         6.3465556188        6.0251636568      -25.1478040687
 H         6.8132102071        4.2344210149      -25.1160401845
 H         6.4008105011        5.2392035423      -22.3812547441
 H         7.6668422817        5.8964562196      -23.3357324913
 H         7.7092595689        0.6864471661      -21.4874014979
 H         6.4355236122        1.1306406106      -22.7397873994
 H         5.5579118113        1.1198384046      -19.9001573784
 H         5.8764472060       -0.4750774377      -20.5558443804
 H         3.7465269302        1.6006864144      -17.7869031598
 H         2.5485189546        0.2711400889      -17.8503260461
 H         1.3172280500        3.0723184195      -17.5854789961
 H         1.8169540161        2.0321142354      -16.2108889977
 H        -1.4352942823       -1.6903848816      -15.3960843953
 H        -2.4230131395       -0.5293643488      -14.6082790557
 H        -0.9072066588       -0.6896579917      -12.5927926719
 H         0.1675889448       -1.8544899948      -13.5834458493
 H        -2.2296915599       -3.4602040545       -8.3821645268
 H        -3.0070832138       -4.3885848374       -9.6818642639
 H        -4.6779630150       -2.2134159098       -9.8003229071
 H        -3.9738174122       -1.5743505949       -8.4113972206
 H        -6.0133199067       -6.1294801333       -6.9756768231
 H        -7.3318758269       -5.7773183468       -8.1345769774
 H        -7.7783848950       -6.6691766675       -5.3341832871
 H        -7.8217353895       -7.5714000123       -6.7989850278
 H       -10.7877782242       -7.4219057325       -3.0196069369
 H       -11.7561267350       -5.9674371317       -2.8625009884
 H       -10.7715681256       -6.0940854338       -0.8105653942
 H        -9.3592903303       -5.4116265283       -1.6275541199
 H        -6.5750117341       -8.5557568357       -1.1324033428
 H        -5.8909481790       -8.4896390174        0.4436546070
 H        -4.1631592492       -7.6387378415       -1.0754686954
 H        -4.6765170103       -6.4386212022        0.0054388651
 H        -2.2005640690       -2.9979083297       -3.9033661570
 H        -1.8899735984       -4.0055317883       -2.4482049454
 H        -3.2009766576       -1.2273562473       -2.8589164003
 H        -1.6015872889       -1.5256950114       -2.2869894789
 H        -5.6896998402       -0.8557812436        1.8805269430
 H        -5.6919752448       -1.8646136086        0.4507345636
 H        -7.0026540527        0.6788368037       -0.0190037872
 H        -7.9499806529       -0.2585886986        1.0752471607
 H        -8.2292330087        0.5091486265       -5.2528531413
 H        -8.8155637491        1.4242345484       -4.0181937628
 H       -10.8469899958       -0.1178472454       -3.9347758049
 H       -10.4253598480       -0.9620444965       -5.3123157683
 H       -13.7866288931       -1.1449160089       -9.0080430841
 H       -12.2211619223       -0.9241400705       -9.7492714728
 H       -13.2168605379        0.3772194956       -9.4175983174
 H       -13.0941383607       -0.3511897987       -4.9311025099
 H       -14.2993796129       -0.0583304356       -6.1425241089
 H       -13.6895206139        1.2724110248       -5.0319253900
 H       -12.2104917488        2.5784022318       -8.0677442033
 H       -12.6744200612        2.9159195614       -6.4831579836
 H       -13.8360630756        2.0618592229       -7.2971636317
 H       -10.8416777378       -1.3469756992       -2.1744519128
 H       -10.1240469642       -1.8839061438       -0.6994273672
 H        -9.6506388170       -2.5218442567       -2.2277767098
 H       -10.0679233365        1.1654427460       -2.1708692869
 H        -8.4309888237        1.4073483466       -1.4381950556
 H        -9.8232327208        0.6764148921       -0.5828845356
 H        -2.9704485005       -0.5700863475        2.3718925857
 H        -2.0411546239       -1.9776175019        1.7454883915
 H        -3.7060715603       -2.1886077074        1.8715823261
 H        -1.1259910731       -0.3260814093        0.0837280255
 H        -2.4220978512        0.9365247195        0.1805096723
 H        -2.1779216317        0.1943427400       -1.3414309206
 H        -2.7960637954       -7.2683495316       -2.1105826848
 H        -2.2779835838       -5.7055048188       -1.4773063034
 H        -2.0505253776       -6.3902048638       -3.1313094361
 H        -4.2151633331       -7.2247107047       -4.4806517906
 H        -3.7011828378       -5.7288301230       -5.1836011663
 H        -5.3671039290       -5.9101114117       -4.5856462121
 H        -9.7872023692       -6.0752640175        1.1478744199
 H        -9.2646850252       -7.3798937220        2.2363516171
 H       -10.6618067730       -7.7122437420        1.1045415856
 H        -7.9269784849       -9.8293485531       -0.2988862588
 H        -9.6488668547       -9.7972312784        0.2717342312
 H        -8.3005169697       -9.4673633119        1.3514988799
 H       -12.0817690908       -5.1106190459       -6.9548423024
 H       -11.6360505772       -4.1701596226       -5.5574406468
 H       -12.6656473679       -5.5252457015       -5.2575711735
 H       -11.1743577540       -8.0380009153       -6.5779389265
 H       -12.2385332234       -7.5639718695       -5.4013245472
 H       -10.5718103451       -8.3995658886       -4.9660740589
 H        -7.5123832298       -1.2000706703       -6.6538262875
 H        -5.7356501240       -0.8590172162       -6.9257197300
 H        -6.1106468694       -1.8389586948       -5.7025601479
 H        -7.0292794033       -4.0878063224       -9.2083797944
 H        -7.0694112738       -2.3788490821       -9.5328018465
 H        -8.2756448370       -3.1832054115       -8.4893783761
 H        -1.1990115102       -5.2539285682      -10.5124822848
 H        -0.7050418575       -5.2679162048      -12.0783567888
 H        -2.3728406655       -5.0457343735      -12.0115400624
 H         0.6413423013       -2.0381814151      -11.5026944384
 H         0.9213372238       -3.6801581773      -11.6999136094
 H         0.6218538942       -3.0451018750      -10.1714257619
 H        -0.0234876731        3.0088536391      -15.1897558816
 H        -1.7106747052        2.8316863022      -15.0529441053
 H        -1.0804688635        3.4136988203      -16.5989296929
 H        -2.3764364688       -0.0818063506      -17.3070221811
 H        -2.6587763974        1.7253387336      -17.5708667638
 H        -2.9321300866        0.9223257603      -16.0805309909
 H         1.9868394737       -0.1755977128      -22.5289749680
 H         1.7924230387        1.5881751374      -22.1248731699
 H         0.7611776444        0.4721138239      -21.3507227866
 H         3.0753452759       -1.6323256793      -20.8643642383
 H         2.2221931187       -1.0336711806      -19.4692987301
 H         3.9903922968       -0.8298438061      -19.4828558124
 H         9.2377044280        1.3597975939      -22.0955667180
 H         9.6872062108        2.0725726849      -20.6537995490
 H        10.0948541972        2.8671061769      -22.2278795616
 H         9.6543929306        4.9722782445      -20.5671525670
 H         8.5687301735        4.1700716619      -19.4104868624
 H         7.9593171843        5.3923160909      -20.5765247049
 H         2.0322670569        4.4437425631      -26.7211388581
 H         2.1514779315        5.7262696289      -25.4522152870
 H         2.4802273327        3.9849360050      -24.9859134848
 H         5.5526881545        3.2398468896      -26.8383445324
 H         4.0055684678        3.2669287229      -27.6422535529
 H         4.0883803104        2.4773638677      -26.1235789797
 Na       -7.3569021212       -3.9453913760       -3.0068570236
 Na        3.7952661892        3.7556223925      -21.7229518114
