232

 C         3.4441676396        6.1713150188      -28.2301506386
 C         4.4552090899        5.8124570206      -27.0919880322
 O         5.3818261259        6.5484794773      -26.8593221996
 C         3.9537903547        4.6574150322      -26.0080962521
 C         4.7092591703        4.8366287465      -24.5956789563
 O         4.0312225881        4.7493572293      -23.5308196230
 C         6.2932727659        5.1297527144      -24.5822104650
 C         6.8996344133        5.0424384587      -23.1657268196
 C         7.8689004001        3.8705683362      -23.0569164413
 O         8.1761777725        3.1796258632      -23.9523946007
 C         8.2900240412        3.3993063395      -21.5073136270
 C         6.9062229706        2.7119195661      -21.1754946407
 O         6.0073030629        3.2909583195      -20.6893300317
 C         6.6246574266        1.2492042841      -21.6465191436
 C         5.5119058634        0.6547963942      -20.8305998129
 C         4.1314260197        0.9703945945      -21.4457973066
 O         4.1215709820        1.5659758958      -22.4930059059
 C         2.9348414842        0.4957271950      -20.7450793666
 C         2.6470945581        1.6686473299      -19.6781268003
 O         2.4395867816        2.7884364980      -20.1517817873
 C         2.7010037224        1.3972075284      -18.1948540107
 C         1.5674448998        1.9105745790      -17.2618120841
 C         0.2072458928        1.2054568530      -17.4611613912
 O         0.1611890856        0.4792481331      -18.4418978666
 C        -0.9802595021        1.3412148357      -16.3340032094
 C        -0.5085404560        0.3278938468      -15.2067277657
 O         0.5674138797        0.4486240597      -14.7412655997
 C        -1.4909019214       -0.8157564003      -14.7387496684
 C        -1.0507353796       -1.4279097643      -13.4041777757
 C        -1.7029761100       -2.7236328022      -12.8347243038
 O        -2.4967912236       -3.3845615450      -13.4556933908
 C        -1.2695528687       -3.2346940742      -11.3728874075
 C        -2.1371087570       -2.4823062251      -10.3675064049
 O        -2.2307502783       -1.2937308677      -10.4217255220
 C        -2.9393241676       -3.2496199037       -9.2683052498
 C        -4.1883312670       -2.4415475612       -8.8891768500
 C        -4.7489520420       -3.1388251053       -7.5924890655
 O        -4.0442076003       -3.7227274545       -6.7452311416
 C        -6.4025975349       -3.0710905196       -7.3665471566
 C        -6.7996410819       -4.2624473342       -6.4732144271
 O        -6.8291778206       -4.0932093508       -5.2451122907
 C        -7.0025110034       -5.6265920032       -7.0958553044
 C        -8.0688700915       -6.4471993460       -6.3554216573
 C        -9.4751502486       -6.0170852513       -6.7004827297
 O        -9.6649925816       -5.5591699058       -7.7858330524
 C       -10.5772408626       -6.1934519213       -5.5362199322
 C       -10.0415796427       -5.8478677743       -4.1168111507
 O        -9.1312535927       -5.0227645715       -3.9226341818
 C       -10.8326288035       -6.4198047560       -2.9603475160
 C       -10.0448610398       -6.4052865148       -1.6653030792
 C        -9.2838998717       -7.6607702298       -1.3153203819
 O        -8.8233130363       -8.2761506859       -2.2781716827
 C        -8.7974010681       -8.0148347762        0.1060581293
 C        -7.4410665880       -7.2150475121        0.0815702985
 O        -7.3759354774       -6.0558279532        0.4112448827
 C        -6.1179428324       -7.9908241465       -0.3832992926
 C        -4.9897679590       -6.9101286134       -0.5987076006
 C        -5.2948801465       -6.2143038822       -1.9562105530
 O        -6.4755922439       -6.0146829288       -2.3304336158
 C        -4.0859127429       -5.5969465704       -2.8366330516
 C        -3.9186404258       -4.0713734874       -2.9086312850
 O        -4.8379290208       -3.2680581289       -3.0857362531
 C        -2.4591189900       -3.4469867916       -3.0265842132
 C        -2.4133768611       -2.0280641992       -2.2915585417
 C        -3.0327574981       -2.1611389545       -0.8494608224
 O        -3.5707174678       -3.2140107092       -0.4853056907
 C        -3.1088447585       -0.8104347034        0.1345270813
 C        -4.5540632132       -0.2085599242        0.0670598850
 O        -4.7490433068        0.8800139414       -0.4757710510
 C        -5.7829663035       -0.7937389108        0.8306026429
 C        -7.0596576300       -0.2500779611        0.1807966408
 C        -7.6642556081       -1.1472006998       -0.9874973838
 O        -7.0672918644       -2.1585353595       -1.2825469720
 C        -8.8483150158       -0.6236473704       -1.8662908743
 C        -8.4198584813       -0.6815896804       -3.4476466876
 O        -7.7627138708       -1.6232893974       -3.8538744582
 C        -8.9403836830        0.4155494318       -4.3664648288
 C       -10.3595745359       -0.0079914112       -4.8367335196
 C       -10.9361109470        1.0528050412       -5.8996194883
 O       -10.3059365524        2.0612668498       -6.1568817734
 C       -12.3951638738        0.7634014714       -6.5913951646
 C       -12.2582805674       -0.5039301869       -7.6408468952
 O       -11.6668060233       -1.5036461840       -7.2204055499
 C       -13.0038121465       -0.5145014894       -8.9378940759
 C       -13.4647346764        0.4480179222       -5.5801901420
 C       -12.7006979097        2.1237490689       -7.2822935649
 C       -10.0408781038       -1.6529105741       -1.7026137443
 C        -9.2489297172        0.8290884259       -1.4942855202
 C        -2.8841470528       -1.3102811323        1.5675292582
 C        -1.9313666725        0.2081232632       -0.2390535200
 C        -2.6875724646       -6.2609742208       -2.5190836468
 C        -4.2496606815       -5.9323985724       -4.3401459417
 C        -9.7311363218       -7.2799325376        1.1338103247
 C        -8.7632489876       -9.4686510045        0.4817215243
 C       -11.7448509114       -5.2433970796       -5.7712192944
 C       -11.0455362731       -7.6508595223       -5.5040437567
 C        -6.7721055245       -1.7355154435       -6.7648862367
 C        -7.0988363049       -3.0305088430       -8.7508360852
 C        -1.6033778610       -4.7630320823      -11.4470829975
 C         0.2209498741       -3.0126313781      -11.0997206975
 C        -0.9764660587        2.8223334557      -15.9327615122
 C        -2.2648787804        0.8536217092      -17.1015627049
 C         1.6736739558        0.5227138927      -21.7709933679
 C         3.0521409338       -0.9786833365      -20.3010039541
 C         9.4248924759        2.3739170143      -21.4044241040
 C         8.6189072781        4.4576697167      -20.4313226364
 C         2.4799597900        4.7467809732      -25.7393459593
 C         4.3540898519        3.3223538671      -26.6553085738
 H         2.9355871722        7.0873117169      -28.0503628080
 H         2.6171136308        5.4499580954      -28.3242687367
 H         4.0718757290        6.3088069174      -29.1280620100
 H         6.5837833392        6.0732004798      -25.1806736741
 H         6.8183681242        4.2443610466      -24.9354386795
 H         6.1938684988        4.9410941609      -22.3997554954
 H         7.4368714431        5.9707812432      -22.9218292091
 H         7.5367999734        0.6586819010      -21.5819191272
 H         6.2204187147        1.2071469357      -22.7863083482
 H         5.5595818265        0.9952950869      -19.7517339368
 H         5.7258818246       -0.4329392971      -20.8849575457
 H         3.6972050813        1.8681278204      -17.9437831835
 H         2.8182902647        0.3105555714      -17.9569173623
 H         1.3216025046        3.0162979551      -17.4043179930
 H         1.9815091098        1.7756708691      -16.2320037059
 H        -1.4424244545       -1.5911588850      -15.4948142582
 H        -2.5254740831       -0.4569908710      -14.7625396872
 H        -1.1344534808       -0.6603132975      -12.6388187145
 H         0.0134837276       -1.7192895345      -13.5113507988
 H        -2.3806341958       -3.5130837096       -8.3296355322
 H        -3.1716206552       -4.2844918117       -9.6816712267
 H        -4.9021266078       -2.4594485058       -9.7572201367
 H        -4.1414542574       -1.3824905137       -8.6761950782
 H        -6.0354913436       -6.1292693875       -7.1458637459
 H        -7.4398721723       -5.4954727948       -8.1243377945
 H        -7.8369230438       -6.4154771040       -5.2553767185
 H        -7.8920611322       -7.6174140458       -6.5503435464
 H       -11.2094344126       -7.3857020930       -3.1135289614
 H       -11.6929088724       -5.7401124091       -2.6832638000
 H       -10.7974127588       -6.2934295193       -0.9360867824
 H        -9.4641893720       -5.5069723600       -1.7304727622
 H        -6.4234617648       -8.5479932262       -1.2599703031
 H        -5.8004409733       -8.6976844954        0.3559291741
 H        -3.9349343199       -7.2167082447       -0.5348746153
 H        -5.1122130994       -6.1298929525        0.1522602990
 H        -2.2275297796       -3.2180288381       -4.0594385352
 H        -1.8048312863       -4.0572334759       -2.5148493817
 H        -2.9913235747       -1.2605763214       -2.7255648070
 H        -1.4161651839       -1.6284383156       -2.2008624587
 H        -5.6833264453       -0.4263242421        1.8960537284
 H        -5.6819422648       -1.8598790958        0.8869338042
 H        -6.9205898498        0.7840176368       -0.0255581885
 H        -7.8310652720       -0.2740639335        0.9492199330
 H        -8.3950435424        0.5826123819       -5.3336121448
 H        -8.8906690831        1.4060097744       -4.0041794322
 H       -10.9627940174        0.0180514426       -3.9115226827
 H       -10.4538829439       -1.0384745560       -5.1116024249
 H       -13.7393059877       -1.2622518608       -8.8342497942
 H       -12.4637823556       -0.8313027536       -9.8819059658
 H       -13.5554580848        0.3571067574       -9.3921016740
 H       -13.2523127661       -0.3340605762       -4.8965190965
 H       -14.3869303631        0.2066318380       -6.1119438592
 H       -13.6507106401        1.2990602327       -4.9346254839
 H       -11.9299648310        2.4753348350       -8.0459301706
 H       -12.6021716037        2.9509812193       -6.5856716579
 H       -13.7763291378        2.1699380857       -7.5130561407
 H       -10.8774520269       -1.2911832859       -2.2690057175
 H       -10.3684676591       -1.7959227773       -0.6827683007
 H        -9.7516521799       -2.5895416942       -2.1005632138
 H       -10.1368958015        1.0837534387       -1.9631901249
 H        -8.4812222192        1.4910502621       -1.7523374060
 H        -9.4278525066        0.6902856360       -0.4195906392
 H        -3.1720591535       -0.5046786408        2.2715794300
 H        -1.7879031099       -1.5745846352        1.7492379349
 H        -3.3853094745       -2.2415459348        1.7103350641
 H        -0.9935758406       -0.0506721659        0.3098758490
 H        -2.2198515405        1.2243504558       -0.1035149902
 H        -1.7528599863        0.0882098296       -1.2688441685
 H        -2.8274496594       -7.3623959843       -2.4200206994
 H        -2.2759325941       -5.8783786874       -1.6137471133
 H        -2.0565049939       -6.2479093199       -3.3711301719
 H        -4.2911040721       -7.0477291102       -4.5358539230
 H        -3.3656599729       -5.6405431008       -4.9306074535
 H        -5.1286543741       -5.5360809108       -4.7781015050
 H        -9.5032416480       -6.2877031156        0.8179777815
 H        -9.3143112004       -7.3763850729        2.1101147295
 H       -10.8261822849       -7.6146727098        1.0185028461
 H        -7.9062368802       -9.9083548718        0.0044557362
 H        -9.6588053627       -9.8596719125        0.0871814622
 H        -8.6513505910       -9.5705570173        1.5455249648
 H       -11.7438433459       -5.0168028803       -6.8197118346
 H       -11.5436300142       -4.3136623263       -5.2291139393
 H       -12.6823971528       -5.6825258158       -5.3973104394
 H       -11.5558579613       -7.9371298142       -6.4966640751
 H       -11.9762953783       -7.8030686608       -4.8583968024
 H       -10.2351672439       -8.4034834777       -5.3817516774
 H        -7.8675014082       -1.5274249284       -6.7659825597
 H        -6.1987653677       -0.8378659797       -7.0447446052
 H        -6.4534884691       -1.6905887529       -5.6727832875
 H        -6.7357033918       -3.8653879052       -9.4207551203
 H        -6.8744146581       -2.0598778819       -9.2922579956
 H        -8.1645890984       -3.1150691100       -8.6230163366
 H        -1.2215792971       -5.3012043380      -10.6056615727
 H        -1.0143281452       -5.2286864972      -12.2180483681
 H        -2.5952837876       -4.8795754288      -11.8647163911
 H         0.6720085054       -2.0869090830      -11.2705271894
 H         0.7845302354       -3.7469722067      -11.7704419007
 H         0.5104785806       -3.3032603863      -10.1376096952
 H        -0.3164169814        3.0271112803      -15.1250718572
 H        -1.8901234654        3.1617801980      -15.4450597894
 H        -0.7102726469        3.5239211092      -16.7222640601
 H        -2.0091503894       -0.1242933333      -17.4552567532
 H        -2.6640479503        1.5976045525      -17.7629590446
 H        -2.9558016461        0.6741419051      -16.3452280255
 H         1.9760757559       -0.1424888807      -22.6294988316
 H         1.4816238955        1.5636213104      -21.9677078655
 H         0.7387928674        0.1415024799      -21.3285400341
 H         2.8787565455       -1.5438713410      -21.1836602542
 H         2.1197761446       -1.1548116313      -19.7311976190
 H         3.9663627582       -1.1882784784      -19.7562861507
 H         9.4623950429        1.5652461071      -22.0662985076
 H         9.2295523438        1.9715869334      -20.4395238507
 H        10.3301549936        2.9015394961      -21.5839322044
 H         9.5941356323        4.9697096548      -20.5439608540
 H         8.5830857043        4.0361730715      -19.4452885925
 H         7.9480680796        5.2796508311      -20.3491550759
 H         1.9680662733        4.2302140086      -26.5220720026
 H         2.3481337441        5.8091836310      -25.8158833624
 H         2.2465823548        4.4299343795      -24.7324203174
 H         5.3331132447        3.2300595325      -27.1567494789
 H         3.6347892762        3.0378409591      -27.3899756432
 H         4.3010739080        2.5350989742      -25.8382896537
 Na       -7.4116326057       -3.8450317480       -3.0405176151
 Na        3.9648255134        3.7292564709      -21.6400185626
