232

 C         3.5239324892        5.9345582105      -28.1510414668
 C         4.4466477677        5.7773278127      -26.9221859646
 O         5.5861711509        6.2155886886      -27.0044269963
 C         3.9592098402        4.7475121964      -25.7827291811
 C         4.6237897367        4.8942083708      -24.4068029675
 O         3.9740451974        4.9444524190      -23.3966647143
 C         6.0801513119        5.2043019083      -24.4311653054
 C         6.8807224313        5.1105250409      -23.1132543614
 C         7.8259017091        3.8529113044      -23.0172834322
 O         8.2193225109        3.1675470720      -23.8581861705
 C         8.0896385090        3.4748146238      -21.4942862451
 C         6.8383692734        2.5980169930      -20.9466766799
 O         5.9809441855        3.1538002416      -20.1970527960
 C         6.6185930730        1.1990746525      -21.5029720087
 C         5.3844759052        0.3510268547      -21.0966991306
 C         4.0080780560        0.8860181143      -21.6859165202
 O         3.8340387632        1.6113375096      -22.6686811095
 C         2.7606679164        0.4539872310      -20.8109423751
 C         2.5542084454        1.5206230441      -19.7045256718
 O         2.5544920198        2.6844133650      -19.9639212641
 C         2.7320046938        1.0841579273      -18.2521481942
 C         1.6790186495        1.7802372854      -17.3540605521
 C         0.3409235569        1.0996777087      -17.6522593865
 O         0.1495812016        0.5929609888      -18.7601071990
 C        -0.9248884165        1.2354330226      -16.6754627444
 C        -0.6910730250        0.5595460156      -15.1577331429
 O         0.1701962110        1.0159676229      -14.4717262856
 C        -1.4932529553       -0.6449059023      -14.6767013887
 C        -1.0911245680       -1.1560307291      -13.2987698896
 C        -1.6687203638       -2.5366619367      -13.0596988958
 O        -2.2564256230       -3.1379519924      -13.9299158927
 C        -1.5282616036       -3.1733103504      -11.5942292107
 C        -2.3685853640       -2.3452957353      -10.5937542817
 O        -2.4120211293       -1.1594668376      -10.7438428839
 C        -3.0036902595       -3.0508479161       -9.2379863375
 C        -4.0598253123       -2.1607941755       -8.5762127549
 C        -4.8956022583       -3.1340987633       -7.6498292245
 O        -4.2378957647       -3.8776464229       -6.9523023632
 C        -6.4598786660       -3.0396249908       -7.5915580055
 C        -6.7612794921       -4.2869128411       -6.5905419359
 O        -6.9348772596       -4.0647732998       -5.3689359725
 C        -6.9230090921       -5.7130082607       -7.1359834478
 C        -7.8721193957       -6.5669409340       -6.2555331474
 C        -9.3590954983       -5.9900353701       -6.5689441501
 O        -9.5958065029       -5.4591119002       -7.5871388578
 C       -10.4812348341       -6.3699447904       -5.5335219080
 C       -10.0740312380       -6.1098980179       -3.9335052803
 O        -9.1529274013       -5.2943338845       -3.7351955771
 C       -11.0133333608       -6.6373736446       -2.8501036636
 C       -10.2913827942       -6.6019320086       -1.4812604721
 C        -9.3546322860       -7.8393095610       -1.3143816472
 O        -9.0057064223       -8.5094650373       -2.2701839984
 C        -8.7084726551       -8.1347889730        0.1545297441
 C        -7.4264386166       -7.2565429883        0.1918225374
 O        -7.4172477846       -6.0821798881        0.6092402052
 C        -6.1443327869       -7.9249139311       -0.3050027769
 C        -5.0050387667       -6.9500889919       -0.6931139417
 C        -5.2067798646       -6.1264880386       -1.9430124541
 O        -6.3969774104       -5.7572246884       -2.1908190457
 C        -3.9942293460       -5.6643310034       -2.7711866495
 C        -3.8432683551       -4.1588041530       -2.6335359136
 O        -4.7298593111       -3.3249324413       -2.5262239684
 C        -2.3160864779       -3.4028523757       -2.7230398580
 C        -2.3364691502       -2.0041167899       -2.1703634162
 C        -2.8237881136       -1.9557766626       -0.7246763640
 O        -3.1457119542       -3.0152517875       -0.2148361182
 C        -2.7391615731       -0.6960714729        0.0798703029
 C        -4.2477589639       -0.1069604514       -0.2308622604
 O        -4.4174975388        0.7533085104       -1.0905451177
 C        -5.4746666021       -0.8693899038        0.4001760643
 C        -6.7881270937       -0.2379589503        0.0344581461
 C        -7.5512004784       -1.0901626989       -1.0250032115
 O        -7.1763782835       -2.2004643775       -1.1716057665
 C        -8.8093009355       -0.6098792828       -1.7946669229
 C        -8.5876473189       -0.7543877545       -3.3580338402
 O        -7.9211939307       -1.6710603304       -3.8934541814
 C        -9.2241520331        0.4141411043       -4.2843862102
 C       -10.6800128008       -0.0331963903       -4.8695424655
 C       -11.0472006687        0.9781807081       -5.9366458852
 O       -10.3905982832        2.0089854021       -5.9622033919
 C       -12.4095399545        0.9145433336       -6.6844061929
 C       -12.4072125160       -0.3518861703       -7.5003767573
 O       -11.5593158752       -1.2451956427       -7.3685951302
 C       -13.3261414512       -0.6219868268       -8.7329463254
 C       -13.5619038302        0.7177471048       -5.6649821261
 C       -12.7198151275        2.2301186496       -7.3828352330
 C        -9.8809292833       -1.6596689534       -1.3267115389
 C        -9.1278897005        0.7983263877       -1.2665346272
 C        -2.6205410564       -1.0174449093        1.6538560785
 C        -1.6399884846        0.3919056155       -0.3847776368
 C        -2.6617195653       -6.4875180054       -2.5794539043
 C        -4.4251081684       -5.9751941266       -4.2639626432
 C        -9.5902655243       -7.6785634454        1.2957510932
 C        -8.5203916844       -9.6380084269        0.1152341675
 C       -11.8080659074       -5.5451194373       -5.7450314049
 C       -10.8505755382       -7.8087522712       -5.8747584960
 C        -6.7205945915       -1.7690192426       -6.8338464790
 C        -7.1317438542       -3.2094627900       -8.9292674566
 C        -1.7760325414       -4.6853528132      -11.6915386980
 C        -0.0050773554       -2.9310491179      -11.2217656987
 C        -1.0577053818        2.6717576437      -16.2025929281
 C        -2.2064863979        0.7342247030      -17.3405639939
 C         1.5054922388        0.5694412732      -21.7610282514
 C         2.8271431409       -1.0149655891      -20.2768421449
 C         9.4189377563        2.7308687398      -21.5971568319
 C         8.4416875213        4.7808293895      -20.7353345605
 C         2.4458952220        4.8330051802      -25.6202597349
 C         4.3275688751        3.3948516020      -26.2852710900
 H         2.7145126132        6.6133308195      -27.8257438068
 H         2.9960233348        5.0595241730      -28.5443534430
 H         4.0985458555        6.4455432878      -28.9334999891
 H         6.2501644581        6.2002388182      -24.7932096152
 H         6.4660871724        4.5128498337      -25.2496601571
 H         6.2243546588        5.3444091415      -22.2700780776
 H         7.5634050261        5.9850001249      -23.1732904391
 H         7.5122660926        0.6726297359      -21.3281571045
 H         6.6040493971        1.4507465031      -22.5988979051
 H         5.4178496182        0.2053454709      -20.0971353536
 H         5.5042255995       -0.5867593137      -21.6964967685
 H         3.7172431252        1.4064831622      -17.8917514919
 H         2.6134334823        0.0198389157      -18.1840772816
 H         1.6164489521        2.8368372874      -17.6604220897
 H         1.9532878848        1.7273977726      -16.3500397076
 H        -1.3193114139       -1.4679752636      -15.3678321666
 H        -2.5527880818       -0.4174422275      -14.7310548470
 H        -1.5086001210       -0.4540967106      -12.5762117621
 H         0.0336857140       -1.2700277367      -13.0495935478
 H        -2.3244575750       -3.5822971174       -8.5997679399
 H        -3.4771652852       -3.9628178253       -9.6972330439
 H        -4.6757346658       -1.5786294456       -9.3282595072
 H        -3.5757568550       -1.4525663603       -7.9329539320
 H        -6.0039068675       -6.2592104418       -7.2593057326
 H        -7.5138000297       -5.5690380684       -8.0644843254
 H        -7.5292511991       -6.5455840171       -5.2622624875
 H        -7.7849592270       -7.6297677134       -6.5435859154
 H       -11.4663462608       -7.6128071594       -2.9892482037
 H       -11.8767638636       -5.9630200071       -2.8026862903
 H       -11.0618140553       -6.6179673834       -0.7127613112
 H        -9.6945711702       -5.6480541303       -1.3805128610
 H        -6.3706381877       -8.6531184879       -1.1397035971
 H        -5.6990778829       -8.4796934247        0.5111094981
 H        -4.0266761749       -7.5842896481       -0.7595001286
 H        -4.8401611823       -6.1611115171        0.0005762168
 H        -2.2300680539       -3.3867076019       -3.8330883284
 H        -1.5560460351       -3.9369729730       -2.1720262599
 H        -3.1007494514       -1.2927126717       -2.6970489337
 H        -1.3418803446       -1.5153845475       -2.0539338656
 H        -5.3044240147       -1.0978675964        1.4580774326
 H        -5.4012979694       -1.8829557415       -0.0680602725
 H        -6.5708073092        0.7604943843       -0.3843882578
 H        -7.4108912177        0.0416467264        0.9355730275
 H        -8.6533177313        0.6879388678       -5.1150962816
 H        -9.2101841830        1.3418734720       -3.7657145398
 H       -11.3525310133       -0.2250672108       -4.0305964207
 H       -10.5682053568       -1.0707428168       -5.2820871209
 H       -13.3196528013       -1.6165569212       -9.0009312312
 H       -13.0241560822       -0.0817984607       -9.6576901987
 H       -14.3260241897       -0.1950189955       -8.7653027736
 H       -13.5202066544       -0.2586939731       -5.3173791175
 H       -14.5809301466        0.9365200577       -6.1240781243
 H       -13.5361738607        1.2618393972       -4.6725659044
 H       -12.1752159893        2.2522064555       -8.3344734845
 H       -12.2263921029        3.0344222920       -6.9423646706
 H       -13.7508087712        2.3944387178       -7.5919300460
 H       -10.8726515525       -1.5311822406       -1.8300560055
 H       -10.1001455356       -1.5738098038       -0.2303760193
 H        -9.4336540845       -2.6440241231       -1.4500898775
 H        -9.9180591271        1.1910546784       -1.8940071228
 H        -8.2657707745        1.4737466028       -1.4450228832
 H        -9.3667667550        0.6272355022       -0.1943441749
 H        -2.6997693334       -0.1592609851        2.3207779631
 H        -1.7067262783       -1.5475784920        1.9389490079
 H        -3.4151134293       -1.6703838597        1.7560716582
 H        -0.6133375098       -0.0767228450       -0.6643352802
 H        -1.4809198183        1.0474905832        0.4460929958
 H        -2.1560733359        0.8895226584       -1.2137138398
 H        -2.8891620675       -7.5551879932       -2.3944320772
 H        -2.1229144967       -6.1595259386       -1.6459625321
 H        -2.1035565722       -6.2958965391       -3.4682020464
 H        -4.5799651130       -7.0700601662       -4.3957438032
 H        -3.7090145754       -5.6985692218       -5.0227076225
 H        -5.3512269108       -5.5869403190       -4.5146697230
 H        -9.5006204185       -6.6270293914        1.1337913037
 H        -9.2341046992       -7.9619957325        2.2522531660
 H       -10.5791041719       -8.1263834425        1.0753403352
 H        -8.1009361528      -10.0141418844       -0.8612481109
 H        -9.5122228826      -10.1163653599        0.2038919904
 H        -7.8533762056       -9.8509081620        0.9713813750
 H       -12.2503585713       -5.8129809076       -6.7140574002
 H       -11.5757600488       -4.4873596433       -5.6367557205
 H       -12.5184275099       -5.8715673839       -4.9523282236
 H       -11.0652841537       -7.9160008751       -6.9174380090
 H       -11.6907160908       -8.0981095242       -5.2861889953
 H       -10.0656656881       -8.5018429074       -5.7596713149
 H        -7.6575035454       -1.7989785183       -6.2979969015
 H        -6.6641831117       -0.9176929308       -7.4870993258
 H        -6.1173218694       -1.5688352412       -5.9457975753
 H        -6.7244577375       -4.0175442869       -9.4922368959
 H        -7.0109910799       -2.2938921867       -9.5127045345
 H        -8.1540739525       -3.3096360563       -8.7380261907
 H        -1.6678610250       -5.1678347196      -10.7535153123
 H        -0.9798448739       -5.1718109484      -12.3368345620
 H        -2.7910286394       -4.8711668643      -12.2278124213
 H         0.2167904671       -1.9720410161      -10.8053662829
 H         0.8127727795       -3.0928813717      -11.9573235885
 H         0.1805798856       -3.6594571966      -10.3899804641
 H        -0.0915490240        3.1260081000      -15.8029209695
 H        -1.8438920722        2.8432397497      -15.3770757226
 H        -1.2704443526        3.3358440899      -17.0528296648
 H        -2.0181999023       -0.3637653386      -17.4483989193
 H        -2.1890541190        1.1933425719      -18.3535620200
 H        -3.0851833763        1.0495300261      -16.7771859401
 H         1.6675591119       -0.2072222694      -22.5137747215
 H         1.4783232128        1.5256455064      -22.0946658991
 H         0.5659959040        0.3631751364      -21.2864087177
 H         2.8197096519       -1.6381523783      -21.1600627620
 H         1.8201458950       -1.2033570043      -19.8923915659
 H         3.6159127086       -1.2504355624      -19.5277421485
 H         9.9763782004        2.9602080777      -22.5606686242
 H         9.3858414004        1.6641290964      -21.3766900323
 H        10.1341080120        3.2445805576      -20.8962152131
 H         9.0387133955        5.4733331943      -21.4547702131
 H         8.8591775286        4.7591594357      -19.7407623605
 H         7.5660921141        5.2778256337      -20.3304593218
 H         1.9730622100        4.3984771065      -26.4891680018
 H         2.1854844105        5.7558480634      -25.1343213369
 H         2.4042239263        4.0157764216      -24.8255483444
 H         5.4562796359        3.4350359471      -26.3944078018
 H         4.0640325426        3.2231998770      -27.2706463489
 H         3.9574313193        2.5616563898      -25.7177532066
 Na       -7.0616622116       -3.8060142802       -3.0799617418
 Na        4.0997835124        3.7251543903      -21.4811037799
