232

 C         3.4016539620        5.9458375580      -28.1689093952
 C         4.3437445761        5.6653256377      -26.9131961691
 O         5.5127320735        6.0694118152      -26.9740857444
 C         3.8897851503        4.6947163497      -25.6971323213
 C         4.7192819833        5.0031262576      -24.4084510153
 O         4.0914966232        4.9701834274      -23.3822484353
 C         6.2255887941        5.5104713662      -24.4401251129
 C         6.8338909618        5.2434903012      -23.0864795651
 C         7.6096539670        3.9064069061      -22.8330959522
 O         7.6827807614        3.1736014415      -23.7439231275
 C         7.9900492489        3.4442176661      -21.4217174143
 C         6.7209655944        2.5278946505      -21.1541223882
 O         5.8635221054        2.9129444944      -20.3169443810
 C         6.5960145562        1.1565049747      -21.7956159701
 C         5.4286596832        0.3854652555      -21.0856269325
 C         4.1367215298        0.9368236912      -21.5207967160
 O         4.1689058172        1.7283061167      -22.4329449772
 C         2.8719009348        0.5296563519      -20.7591875727
 C         2.8220736129        1.4217355172      -19.5149700553
 O         2.7474143969        2.6167823626      -19.6806064691
 C         2.8175116859        0.8604763581      -18.0836598295
 C         1.6568256872        1.4544890935      -17.2793102379
 C         0.2510737745        1.0021015445      -17.7135227503
 O         0.0949201273        0.3862729890      -18.7495434967
 C        -1.0640860867        1.4001612060      -16.7677048439
 C        -0.7053513805        0.8754985882      -15.3260852186
 O         0.2893311068        1.3343350262      -14.7688534198
 C        -1.3021688737       -0.4766569785      -14.9107803677
 C        -1.1297108438       -0.8532010558      -13.4211579916
 C        -1.6184401685       -2.2833847456      -13.2513150860
 O        -2.0409221359       -2.9269440428      -14.2164381900
 C        -1.5531737504       -2.9029643074      -11.9137226455
 C        -2.5258488555       -2.1258243159      -10.8494835777
 O        -2.7936032399       -0.9575406293      -10.8745063116
 C        -3.1610542008       -3.0747825191       -9.7825558743
 C        -4.0430990948       -2.3296311084       -8.8105696274
 C        -4.8543961082       -3.3315775541       -7.7707429613
 O        -4.2332848527       -4.1216852293       -7.1553305796
 C        -6.3304406173       -3.1068646807       -7.6983339391
 C        -6.7949634249       -4.2131443081       -6.6060041964
 O        -7.0847281918       -3.7977242990       -5.4458372508
 C        -6.8101914894       -5.6482568542       -7.1157119346
 C        -7.8516715316       -6.4864510782       -6.2960582113
 C        -9.2957914388       -5.9202120418       -6.3799582392
 O        -9.5860786750       -5.1332540275       -7.1795249216
 C       -10.4086848203       -6.4788079749       -5.4198580982
 C       -10.0699640526       -6.1869228043       -3.8900031292
 O        -9.0354966164       -5.5381805543       -3.6829113670
 C       -10.9781778546       -6.6503870784       -2.7905012673
 C       -10.3881686348       -6.8100950949       -1.4214314951
 C        -9.3817609155       -7.9893113924       -1.3404819399
 O        -9.1763827834       -8.7181771969       -2.2683003262
 C        -8.6807636623       -8.3213025440        0.1378676128
 C        -7.3626263316       -7.3417313300        0.2059075700
 O        -7.3890346920       -6.2530686397        0.8219872139
 C        -6.0488316093       -7.8979643225       -0.3852271633
 C        -4.9074349405       -6.9324326424       -0.5176289551
 C        -5.0966900306       -6.0782024175       -1.8113606167
 O        -6.2020303115       -5.5789091089       -2.0312148785
 C        -3.9215317905       -5.7237826078       -2.7240938509
 C        -3.8473225573       -4.1161615650       -2.4574249422
 O        -4.8378029558       -3.4416344555       -2.6310289863
 C        -2.4211169226       -3.5791735210       -2.4584755479
 C        -2.2228662288       -2.1120740049       -2.0017009123
 C        -2.4259375007       -2.0725598025       -0.4927621964
 O        -2.5605977292       -3.0447417234        0.2149952153
 C        -2.5239925201       -0.5125692397        0.0060423932
 C        -3.9272776684       -0.0845583518       -0.4440413234
 O        -3.9544140425        0.5827115373       -1.4695294443
 C        -5.1721505072       -0.6241557829        0.2538486147
 C        -6.5822686458       -0.1636506223       -0.3616849348
 C        -7.4203828196       -1.1837287251       -1.0424229862
 O        -7.2054875360       -2.3660446533       -1.2170049342
 C        -8.9186328665       -0.7119694083       -1.6185537947
 C        -8.8611269865       -0.7919796206       -3.2297879469
 O        -8.4385751251       -1.8204350178       -3.7932803458
 C        -9.3226942970        0.3123432424       -4.0740353574
 C       -10.6873359905       -0.0031908811       -4.7880665304
 C       -11.0962567121        1.1267205852       -5.8304677766
 O       -10.4238680470        2.1429774356       -6.0079183627
 C       -12.4711222767        0.9799554313       -6.5685390001
 C       -12.3772885467       -0.3306243718       -7.5212707019
 O       -11.4102955289       -1.0706329314       -7.4276212050
 C       -13.6564760492       -0.4752581597       -8.4090425172
 C       -13.6704087142        0.8147491919       -5.6086078279
 C       -12.6383549350        2.1389088849       -7.5433258432
 C       -10.0776984210       -1.6613282878       -1.2232676947
 C        -9.1967398365        0.7080394137       -1.0038933403
 C        -2.4626722056       -0.5663480158        1.5088415566
 C        -1.4728584693        0.4464754193       -0.6727938299
 C        -2.5433243760       -6.5541362888       -2.4364276177
 C        -4.4396806907       -5.8148175939       -4.1691443177
 C        -9.6005537550       -8.0418739431        1.3068553651
 C        -8.2794740669       -9.7839921987        0.0687417391
 C       -11.7149839429       -5.7831924358       -5.9418617749
 C       -10.5431687478       -7.9950898787       -5.6020265564
 C        -6.7212285479       -1.7822639039       -7.1093276291
 C        -6.9785393830       -3.3300628581       -9.0844493639
 C        -2.0628294822       -4.4227293456      -11.8642156317
 C        -0.1472612455       -2.8499327376      -11.1469989521
 C        -1.4102089706        2.8670902739      -16.8162435781
 C        -2.2843566557        0.6807553077      -17.4385171385
 C         1.6192055089        0.9034618916      -21.6004144679
 C         2.8300304447       -0.9938132066      -20.4957827324
 C         9.2919730078        2.6494495373      -21.4236056960
 C         7.9929538458        4.5411371596      -20.3069454532
 C         2.3665582579        4.7964767828      -25.4570373083
 C         4.1891912282        3.1520234760      -26.0796040126
 H         2.4817733343        6.5912098133      -27.9957525180
 H         3.0934332630        5.0027868348      -28.5962163700
 H         3.9365311877        6.3600334386      -29.0118486780
 H         6.1531836956        6.5118639552      -24.6981908679
 H         6.8455197910        5.0273361642      -25.2203110504
 H         5.9941291940        5.4102839960      -22.3562194274
 H         7.5376995988        6.0259844097      -22.8338363824
 H         7.5562655510        0.6625682230      -21.5129328102
 H         6.5132222743        1.1783314469      -22.8512844936
 H         5.5091946885        0.5345554843      -20.0840587989
 H         5.5691024867       -0.7139603118      -21.3989796369
 H         3.7420914291        1.2261201095      -17.6239357164
 H         2.7499289601       -0.2080102939      -18.0606783794
 H         1.7216327077        2.5679066819      -17.3454336078
 H         1.7224239261        1.1731050085      -16.2249217918
 H        -0.7051605180       -1.2782805385      -15.4396566869
 H        -2.3239903866       -0.4803840230      -15.2819319948
 H        -1.7278830510       -0.2650160550      -12.7804414561
 H        -0.1340080760       -0.7247106090      -13.0601774577
 H        -2.3482376943       -3.6431831489       -9.4824417146
 H        -3.7525823217       -3.8344651420      -10.2310254762
 H        -4.6932782644       -1.6208767181       -9.3334452486
 H        -3.3618806636       -1.8081962187       -8.1430434303
 H        -5.8062274613       -5.9626573964       -6.7913727513
 H        -7.0242721012       -5.7937612932       -8.1789410430
 H        -7.5637825186       -6.5383816369       -5.2560313460
 H        -7.8744971210       -7.4934320375       -6.6314402049
 H       -11.4764643260       -7.6442665201       -3.0228934334
 H       -11.8671172193       -6.0175986934       -2.7998639782
 H       -11.1996836270       -7.0864737511       -0.7225063988
 H        -9.9988730243       -5.8242583047       -1.0608065253
 H        -6.2904114281       -8.3390837337       -1.4002411964
 H        -5.8417605047       -8.7356891164        0.3060718359
 H        -3.8910226009       -7.4317872074       -0.6639686616
 H        -4.9654112052       -6.2440666080        0.3162161828
 H        -2.1689133701       -3.5649844628       -3.5628508594
 H        -1.8138024778       -4.3873885797       -1.9906456176
 H        -2.9712253908       -1.3468968118       -2.4205787727
 H        -1.1984729008       -1.8587589676       -2.1142762204
 H        -5.0447159761       -0.3995406108        1.2776736337
 H        -5.1213667536       -1.7329325375        0.2466088380
 H        -6.5105423472        0.6616524232       -1.0935101215
 H        -7.1728495942        0.3620300508        0.3934227277
 H        -8.5729121874        0.3720324429       -4.9316911810
 H        -9.2725957541        1.3811698498       -3.6049792663
 H       -11.4756562167       -0.1185804351       -4.0595400829
 H       -10.5237717018       -1.0206819508       -5.2090935218
 H       -13.3328659273       -0.6563607861       -9.4094453195
 H       -14.3301519300        0.3862431948       -8.5030808094
 H       -14.4283599170       -1.2017303354       -8.2020764113
 H       -13.4390375561        0.2587884897       -4.7722481083
 H       -14.5310005151        0.3505371428       -6.0948246540
 H       -14.0900811475        1.7464961072       -5.2330014285
 H       -11.9135559955        2.2759659762       -8.3607255011
 H       -12.6139597166        3.0838639431       -6.9249150881
 H       -13.5956040171        2.1177980009       -8.1152306587
 H       -11.0357889346       -1.2618813738       -1.5436280618
 H       -10.1234710897       -1.8324790870       -0.1614795015
 H        -9.8707005660       -2.6243708495       -1.6355728381
 H       -10.2142994335        1.0578372449       -1.2585061764
 H        -8.4163258380        1.4121447266       -1.4108686592
 H        -9.0368165209        0.7081874436        0.0457467532
 H        -2.9677969953        0.3590570455        1.9267910501
 H        -1.4054483342       -0.5053293011        1.7908722520
 H        -3.0219501510       -1.4052405230        1.9336974874
 H        -0.7854501777       -0.1225105900       -1.3150983131
 H        -0.9232000397        0.7106044452        0.1521660047
 H        -1.9470891913        1.2450217061       -1.2128136466
 H        -2.7681229281       -7.4411080124       -2.9729562013
 H        -2.2033889416       -6.8520209270       -1.3880024749
 H        -1.7048194074       -6.0098225716       -2.7717981964
 H        -4.5854567896       -6.8599387234       -4.4933445546
 H        -3.8087582510       -5.3065232522       -4.9186250944
 H        -5.4205176600       -5.3848774673       -4.3104047274
 H        -9.9169262316       -7.0006737670        1.1472003287
 H        -9.0179612504       -8.1810723108        2.2184432262
 H       -10.3517750412       -8.7838850861        1.2585785453
 H        -7.7009829904       -9.9671360529       -0.8373998307
 H        -9.1878395612      -10.3461265513       -0.0847992370
 H        -7.8773314553      -10.1810167194        0.9974411459
 H       -11.9049060035       -6.1255598998       -6.9569067980
 H       -11.5319624127       -4.7288154918       -5.7956310250
 H       -12.5154062091       -6.1675130708       -5.3230725757
 H       -10.3577833617       -8.3079140923       -6.6027482326
 H       -11.5153063502       -8.3419123573       -5.2136853991
 H        -9.8088379073       -8.5813258072       -4.9776606438
 H        -7.7976050676       -1.4831948326       -7.1698435708
 H        -6.1826666614       -0.9275682795       -7.4840768458
 H        -6.6579923162       -1.8484523123       -6.0491833803
 H        -6.7252391698       -4.3759947841       -9.3494308217
 H        -6.4305499220       -2.6514490279       -9.8037813060
 H        -8.0689055871       -3.0726493151       -9.0416308599
 H        -1.7623519144       -4.8992499771      -11.0195310639
 H        -1.6460143114       -4.9479798410      -12.7385523682
 H        -3.1973669932       -4.5221481641      -11.8457737118
 H         0.2547478339       -1.8304602505      -11.2769377023
 H         0.5435748839       -3.4824273543      -11.6744509934
 H        -0.1033879423       -3.1170311662      -10.0260974198
 H        -0.6372930802        3.5351318017      -16.3386399702
 H        -2.3870339969        2.9263540075      -16.3662962333
 H        -1.5593901451        3.2409354771      -17.7636201721
 H        -1.9993858271       -0.2978883626      -17.7688411551
 H        -2.4814832850        1.1838582537      -18.3430605477
 H        -3.0972163699        0.8193035314      -16.7375712032
 H         1.4707540650        0.2456559303      -22.5249554045
 H         1.6391834000        1.9335610107      -21.8456893332
 H         0.7286341510        0.7137138332      -20.9028451394
 H         3.0505752236       -1.5303424611      -21.4746695560
 H         1.9002826476       -1.2505198790      -20.0326874493
 H         3.6620363469       -1.3384953870      -19.7999510834
 H        10.0515004826        3.3935936345      -21.0155271026
 H         9.6101499674        2.4190633901      -22.3941723510
 H         9.2745604278        1.7095839225      -20.9215271303
 H         8.8684797166        5.2011898751      -20.3071208941
 H         8.1372480415        4.0842895934      -19.3600097511
 H         7.1184242425        5.1162348045      -20.1797256092
 H         2.0261809122        4.3855021935      -26.3669872236
 H         2.2128446792        5.8260394112      -25.3318136933
 H         1.9446281319        4.2420721425      -24.6135330272
 H         5.3470124065        3.2133291012      -26.2691212735
 H         3.7610400873        2.8050983366      -27.0261521089
 H         3.9105316833        2.4441570922      -25.3324502163
 Na       -7.2009371475       -3.8348680616       -3.1322276328
 Na        3.8346013444        3.7292947395      -21.4097086849
