232

 C         3.3906135532        5.8499245949      -28.0692172435
 C         4.3977597099        5.5524608320      -26.9399544483
 O         5.4610854788        6.0695535204      -27.0110580462
 C         3.8755315524        4.7464379363      -25.7961747120
 C         4.6996153451        5.0549604915      -24.3489970440
 O         4.1291164426        4.9114183273      -23.3029775408
 C         6.1299256331        5.4959710829      -24.3114329201
 C         6.8916860477        5.3471873407      -23.0068641732
 C         7.4158062108        3.9614015943      -22.8844268395
 O         7.6267748137        3.1083465738      -23.6826418059
 C         7.8408091190        3.3718390961      -21.3218331071
 C         6.6719532874        2.4603837316      -21.0415748826
 O         5.5766805344        2.9006293682      -20.4371818756
 C         6.7233972349        1.0905879226      -21.7416466530
 C         5.5618766516        0.2441690237      -21.1209346320
 C         4.1908848834        0.9049144508      -21.5110641842
 O         4.0941416012        1.7686285722      -22.3938071787
 C         2.9149430641        0.5321670834      -20.7416379512
 C         2.8792788592        1.4814262435      -19.4316897645
 O         2.8752478920        2.6741421584      -19.5237042596
 C         2.7467499462        0.7651941027      -18.0620152975
 C         1.6465525954        1.4223618871      -17.2372888911
 C         0.2256373156        1.0405764263      -17.7775473130
 O         0.1333851807        0.2990671658      -18.7408367492
 C        -1.0632720789        1.4012918878      -16.9296464746
 C        -0.6207821369        0.8781282456      -15.4765093534
 O         0.1836283509        1.5187244984      -14.9104049139
 C        -1.2962037862       -0.3971031714      -14.9572051503
 C        -1.1300682233       -0.7416397321      -13.4583947912
 C        -1.5894757559       -2.2417324336      -13.2950727566
 O        -1.9847659991       -2.8295340353      -14.2737384445
 C        -1.6292151537       -2.9565712183      -11.8354288332
 C        -2.6493618249       -2.1790406976      -10.9240330306
 O        -2.7629149808       -0.9981209513      -11.0104946236
 C        -3.3292943369       -3.0124520226       -9.8082686365
 C        -4.0647998173       -2.2256843374       -8.7759559872
 C        -4.7792918182       -3.2781827588       -7.8018017163
 O        -4.1631980364       -4.2252902945       -7.3051435442
 C        -6.3463911602       -3.1422596225       -7.6814861833
 C        -6.8758831355       -4.1946535978       -6.6266327462
 O        -7.1070248337       -3.8127419727       -5.4991478360
 C        -6.8931086186       -5.6367464691       -7.0145197908
 C        -7.8236012782       -6.5256615835       -6.1736108168
 C        -9.2430037163       -5.8904932334       -6.3131320797
 O        -9.4200750901       -4.9823838223       -7.1088955944
 C       -10.3592545010       -6.5264392763       -5.3876825366
 C       -10.0325362021       -6.1375495471       -3.8393795118
 O        -9.0190850487       -5.5270764217       -3.5338738696
 C       -11.0088560812       -6.5540179434       -2.7276688095
 C       -10.2487473687       -6.9122999921       -1.3560404987
 C        -9.3304285056       -8.0755797938       -1.3243033978
 O        -9.1026777994       -8.8127019394       -2.2815253413
 C        -8.6299863339       -8.3697173933        0.0041631039
 C        -7.3611244978       -7.4678022524        0.2352344358
 O        -7.4285567522       -6.4254224031        0.7834338097
 C        -6.0525666248       -8.0078404459       -0.3424081990
 C        -5.0422108449       -6.9078764620       -0.4155986955
 C        -5.1235655515       -6.0647081122       -1.7060147288
 O        -6.2616561913       -5.6639780134       -2.0016091254
 C        -3.9720618586       -5.6987995522       -2.6870174583
 C        -3.8539713537       -4.1619540555       -2.5901136326
 O        -4.7495419800       -3.3810031653       -2.7052231188
 C        -2.3281064517       -3.6427481496       -2.4604399204
 C        -2.0976333597       -2.1312259997       -2.0414761386
 C        -2.2544536560       -1.9697864822       -0.4698601362
 O        -2.3175819076       -2.8665771890        0.3533152799
 C        -2.4566050299       -0.4863976461        0.0491797413
 C        -3.9912989141       -0.1518135470       -0.6084107349
 O        -3.9797584809        0.5749051170       -1.5942884283
 C        -5.2408802694       -0.6345291453        0.0859452948
 C        -6.5349533635       -0.0513203190       -0.5603129261
 C        -7.4953871511       -1.2114520765       -1.1097159564
 O        -7.0903064846       -2.3163052970       -1.1549171022
 C        -8.8697083215       -0.7364915830       -1.6054627371
 C        -8.9471923959       -0.8118149089       -3.2161914179
 O        -8.6040700581       -1.8766286266       -3.7199206517
 C        -9.3901219621        0.3883860332       -4.0555634690
 C       -10.7449090520        0.0874194120       -4.7843070702
 C       -11.0704344708        1.1951515414       -5.7158996928
 O       -10.3550370831        2.1305288015       -5.9258536728
 C       -12.4861095597        0.9902552014       -6.5463264762
 C       -12.4298180579       -0.2720128840       -7.4793421483
 O       -11.5015182297       -1.0605725282       -7.5584806219
 C       -13.6259933828       -0.6531000934       -8.3360576579
 C       -13.5828977773        0.9071902883       -5.5547040936
 C       -12.6228711986        2.2197686640       -7.4918104472
 C       -10.0429043571       -1.7276808194       -1.1673231835
 C        -9.1926517547        0.6664127063       -0.9955044814
 C        -2.3569961105       -0.4628543525        1.6016539059
 C        -1.4220608548        0.4101205732       -0.6165712775
 C        -2.6945918210       -6.5145760787       -2.5307626972
 C        -4.3592928449       -5.8714690784       -4.1121878564
 C        -9.6142957595       -7.9594315733        1.2952038460
 C        -8.3176170928       -9.8568084662        0.0176180243
 C       -11.7820764579       -5.9708584114       -5.7830680034
 C       -10.3884302965       -8.0781430188       -5.6771941785
 C        -6.7165015038       -1.6797723243       -7.2243144019
 C        -6.9105802930       -3.3972750363       -9.1373312037
 C        -1.9225806285       -4.4754158032      -12.1261740707
 C        -0.2950711144       -2.7728089735      -11.1117044169
 C        -1.3556353386        2.9573365533      -16.8751852976
 C        -2.3312638745        0.6633309838      -17.5670446284
 C         1.6395538982        0.9953818570      -21.6295349178
 C         2.8499288874       -0.9685992428      -20.4856111149
 C         9.2708953854        2.7248994212      -21.5420223141
 C         7.9463573191        4.4418902916      -20.1832142420
 C         2.3645772640        4.7976337620      -25.4286580461
 C         4.1951426224        3.1919111975      -26.0930602923
 H         2.7560675825        6.5746359571      -27.5822948808
 H         2.7691155120        5.0133305023      -28.4547524199
 H         3.7548672051        6.2779016271      -29.0239854720
 H         6.0294596747        6.4690236297      -24.7518058826
 H         6.7944356027        4.9719231107      -25.0062223967
 H         6.3636048573        5.5806537619      -22.0643714259
 H         7.7991503341        6.0237795336      -22.9858646177
 H         7.6541330356        0.7051095172      -21.6752851919
 H         6.4559134342        1.2151940030      -22.8095768360
 H         5.6187184708        0.1190622191      -20.0682847593
 H         5.6229634214       -0.7030177672      -21.6475962249
 H         3.7306397801        0.8605527583      -17.6596609342
 H         2.4596181997       -0.2536409692      -18.1453733851
 H         1.6720985044        2.5140541226      -17.3178566664
 H         1.6790764241        1.1620257116      -16.2396953168
 H        -0.8675266250       -1.2564279588      -15.5060435420
 H        -2.3460477031       -0.2808941545      -15.2516126670
 H        -1.7932136576       -0.1773019819      -12.8590206768
 H        -0.1220089711       -0.5098942040      -13.0390127109
 H        -2.5108612081       -3.5887749657       -9.4706159394
 H        -3.9941357056       -3.7532986043      -10.2142051148
 H        -4.8908649467       -1.5813457623       -9.1690204491
 H        -3.3434755708       -1.6651151945       -8.2503414967
 H        -5.8618005813       -5.9562449566       -6.9342693226
 H        -7.3190926103       -5.7638441324       -8.0313344003
 H        -7.5476225565       -6.6448235660       -5.2039141229
 H        -7.8521089161       -7.4918584929       -6.6307428451
 H       -11.7661673069       -7.2722622145       -3.0112010071
 H       -11.6610619009       -5.6644049947       -2.5392156015
 H       -10.9699264919       -7.0999117933       -0.5251997857
 H        -9.7400037116       -5.9100774154       -1.0721526419
 H        -6.2717289668       -8.3763760641       -1.4089146885
 H        -5.7438793276       -8.8791097950        0.2575920167
 H        -3.9799184514       -7.3138074114       -0.5466711820
 H        -5.2297603748       -6.2788170152        0.4661911068
 H        -1.6780199614       -3.7784362082       -3.4116892324
 H        -1.9584789095       -4.3729042389       -1.7398242072
 H        -2.8316632415       -1.3321476722       -2.4229932829
 H        -0.9932115478       -1.9235146253       -2.2611997214
 H        -5.0997192581       -0.3538329035        1.1393228103
 H        -5.2702631271       -1.7252013389        0.0914724267
 H        -6.3133429691        0.8124387164       -1.2320059603
 H        -7.0809047288        0.5315608584        0.2546550206
 H        -8.5723553759        0.7350042836       -4.7347332255
 H        -9.6585715269        1.2523337505       -3.4770408131
 H       -11.5243989911       -0.0367196500       -3.9939484707
 H       -10.7387110383       -0.8742086236       -5.3889701759
 H       -13.4267503782       -0.4986311805       -9.3282854180
 H       -14.6452463626       -0.3297476541       -8.1655608544
 H       -13.7705791648       -1.7362334942       -8.2984706891
 H       -13.3777727392        0.2603384400       -4.7324621677
 H       -14.5840572638        0.6117951533       -5.8960334650
 H       -13.7587752085        1.9130670014       -5.1466785824
 H       -11.7862157472        2.4258282790       -8.1938992379
 H       -12.7064033404        3.0163196248       -6.7972511885
 H       -13.4536204704        2.2445775619       -8.1852369489
 H       -11.0369094418       -1.4891067407       -1.6458463950
 H       -10.1492717299       -1.7110343347       -0.0334599142
 H        -9.7137429222       -2.7619296985       -1.3707866517
 H       -10.1468213360        0.9274677640       -1.4849891533
 H        -8.4113382452        1.4545151969       -1.0543397721
 H        -9.4238888807        0.5249724893        0.1472996334
 H        -2.8992502772        0.3826732048        2.0122395131
 H        -1.2678178017       -0.3470545140        1.8493784078
 H        -2.7827093344       -1.3079683772        2.0746890186
 H        -0.6675452602       -0.1312494450       -1.2545673959
 H        -0.9244900878        0.8041172544        0.2496339378
 H        -1.9546389717        1.1313594194       -1.1952226451
 H        -3.0339892532       -7.5334228525       -2.8965054047
 H        -2.2683682392       -6.5736298136       -1.5405226743
 H        -1.8915250231       -6.0634332477       -3.0928076513
 H        -4.4961660687       -6.9482996396       -4.3424184050
 H        -3.6584136799       -5.4415037942       -4.8003998617
 H        -5.2665673761       -5.4315129082       -4.3688978299
 H        -9.7179324034       -6.9146320907        1.2326507649
 H        -9.1572442699       -8.3032199037        2.1673744980
 H       -10.5719491208       -8.5250431544        1.1001372893
 H        -7.4410903288      -10.2018893443       -0.5846977695
 H        -9.1583843727      -10.4731863128       -0.2963229764
 H        -8.2509531026      -10.0478620100        1.1026498053
 H       -11.9224075579       -6.2075512500       -6.8307886691
 H       -11.8005185908       -4.9131440462       -5.5191444954
 H       -12.5221646213       -6.5964745308       -5.2229091783
 H       -10.3721775893       -8.1834248944       -6.7591019526
 H       -11.2468102838       -8.5140852577       -5.2922269675
 H        -9.6342942087       -8.6242351094       -5.2832146219
 H        -7.7023260365       -1.3397930285       -7.3998780684
 H        -6.1365812115       -0.9310005505       -7.6478938675
 H        -6.6491540101       -1.6540042823       -6.1360406166
 H        -6.4455084631       -4.3356999336       -9.5116533053
 H        -6.5262597970       -2.5254185130       -9.7612082346
 H        -7.9850782715       -3.4041753593       -9.1117517884
 H        -1.7069251201       -5.3372780880      -11.4663878347
 H        -1.4797617747       -4.4994615601      -13.1129719101
 H        -3.0301378969       -4.5999743863      -12.2096340913
 H        -0.0895490451       -1.6854991939      -11.1029788533
 H         0.6111655176       -3.2656223411      -11.7151348023
 H        -0.2277547059       -3.1258900623      -10.0877637181
 H        -0.7378217734        3.3897719832      -16.1578835181
 H        -2.4558485617        3.0372815688      -16.6625808608
 H        -1.2558068467        3.5613531154      -17.8436763986
 H        -2.0980176124       -0.4002224736      -17.7494236928
 H        -2.5753625675        1.0545581635      -18.5688000052
 H        -3.0692792618        0.8962410947      -16.8408761854
 H         1.7396668162        0.6487507987      -22.6900376607
 H         1.6965732682        2.0827992683      -21.6721918928
 H         0.6857352357        0.6697683677      -21.2460014472
 H         3.2555234580       -1.4348119748      -21.3676966790
 H         1.8073536914       -1.2680853376      -20.1994881391
 H         3.5242201030       -1.3529680267      -19.6850540922
 H         9.8680556057        3.1794720300      -20.7731511497
 H         9.8372403864        3.0130688745      -22.4532057207
 H         9.2968394222        1.6161585903      -21.5720496262
 H         8.8647402434        5.0794116246      -20.2171015696
 H         8.1146815592        4.0487020938      -19.1467383069
 H         7.0815776259        5.1219386512      -20.1750201610
 H         1.7609555803        4.1092650979      -25.9764546448
 H         2.0819111198        5.8399230281      -25.4732124613
 H         2.3873659923        4.5116437013      -24.3657501483
 H         5.1162386572        3.1595395952      -26.6300878616
 H         3.4519484795        2.7835861966      -26.7597220202
 H         4.2061444346        2.4966721993      -25.1790819297
 Na       -7.3238880457       -3.8842288092       -3.1036875979
 Na        3.7711301939        3.7975563406      -21.4158020584
