232

 C         3.2653451625        5.6927830451      -27.8983113168
 C         4.2905034930        5.5625276044      -26.8734623411
 O         5.4475502083        6.0108989393      -27.0039173292
 C         3.9122664368        4.7211718245      -25.6488830753
 C         4.6858192857        4.9974198590      -24.3250087736
 O         4.1388915818        4.9154522966      -23.2112598744
 C         6.1112405442        5.5002766265      -24.3358486574
 C         6.7868586869        5.5362808987      -22.9318499879
 C         7.4028550306        3.9695231187      -22.7409042024
 O         7.2971151037        3.1718576767      -23.6779923433
 C         7.7989942731        3.4415858502      -21.4010062484
 C         6.5840217550        2.3711300734      -21.0348881661
 O         5.6842593676        2.7346789397      -20.4356056364
 C         6.8058351333        0.8416815312      -21.4466187811
 C         5.4745217789        0.0525651720      -21.4435292345
 C         4.2349322593        0.9454939940      -21.6077530941
 O         4.1895857166        1.7302879703      -22.5118328406
 C         2.9029126477        0.6019391294      -20.7889281763
 C         2.9930211224        1.4065700311      -19.3706822248
 O         3.0898587543        2.6375256367      -19.4787609885
 C         2.7468220061        0.7588436307      -17.9696161007
 C         1.5863974440        1.4875036089      -17.3409075579
 C         0.2202422883        0.9092046315      -17.7863033857
 O         0.1661527591        0.2606222054      -18.8118922431
 C        -1.0142446411        1.4145555835      -17.0333804962
 C        -0.8834628645        1.0283748749      -15.5234287907
 O        -0.1929774984        1.6998927662      -14.7205667669
 C        -1.5221867154       -0.2912241641      -15.0376626888
 C        -1.1375052954       -0.7001883928      -13.6206581419
 C        -1.5469893915       -2.1593142472      -13.4482755214
 O        -1.9257339336       -2.7287183874      -14.4658705765
 C        -1.6383967078       -2.8684501127      -11.9342933060
 C        -2.7561738317       -2.2049845814      -11.0704668839
 O        -3.0203379773       -1.0118141555      -11.0962856869
 C        -3.4750107427       -3.0969310056      -10.1189747661
 C        -3.9284762597       -2.2240721106       -8.9161046604
 C        -4.7244131819       -3.2238434441       -7.9418481425
 O        -4.2111459625       -4.1848760286       -7.4760111764
 C        -6.3315828913       -3.1183150560       -7.7285392004
 C        -6.7212750525       -4.0957030744       -6.6598936979
 O        -7.0666997904       -3.7682093220       -5.4986764533
 C        -6.7284548165       -5.5871144011       -6.9784808017
 C        -7.6898173811       -6.3444375337       -6.0586700340
 C        -9.2002505641       -5.8056660275       -6.1039177345
 O        -9.5476699781       -4.8630999602       -6.7296458534
 C       -10.2606134286       -6.6364619404       -5.2775948338
 C        -9.9492861617       -6.2095100622       -3.7684738208
 O        -8.9694464786       -5.4996065055       -3.5495451325
 C       -10.8743443477       -6.7121101704       -2.6834062124
 C       -10.1515431522       -6.8904395836       -1.4044390829
 C        -9.3055147445       -8.1243435300       -1.3611994482
 O        -9.0910678560       -8.6796204331       -2.3963895887
 C        -8.7022955969       -8.5736874962        0.0265145027
 C        -7.3475460899       -7.7216544487        0.1770425734
 O        -7.4517744430       -6.5948463576        0.7265583657
 C        -5.9523213293       -8.0966079476       -0.3379242721
 C        -4.9641132332       -6.9237117914       -0.4995426751
 C        -5.3332185936       -6.0960922999       -1.7798688698
 O        -6.4566054420       -5.7479483026       -2.0137296898
 C        -4.0866799034       -5.6793558103       -2.6523264775
 C        -3.6676547787       -4.1615036253       -2.5874009791
 O        -4.4694886407       -3.2489674691       -2.8325469053
 C        -2.2388756693       -3.7220204293       -2.2340229130
 C        -2.0745921388       -2.1661916396       -2.0699274513
 C        -2.1258162887       -1.8531163086       -0.4444240560
 O        -1.8549646903       -2.7107166767        0.3692764359
 C        -2.4855820704       -0.3893901436       -0.0603781908
 C        -3.7889236961       -0.1248662976       -0.6939389205
 O        -3.8699527740        0.5240499455       -1.7161990834
 C        -5.0874300597       -0.6597008014       -0.1068225626
 C        -6.3312008562       -0.1055894918       -0.7048877492
 C        -7.3883523616       -1.0896697352       -1.1395636894
 O        -7.1372609659       -2.3257318039       -1.2907989278
 C        -8.9068283386       -0.7275255163       -1.4836307425
 C        -9.0427146412       -0.8583348477       -3.1091194491
 O        -8.8168840531       -1.9027048898       -3.6686284015
 C        -9.4119502092        0.3388051600       -4.0004682948
 C       -10.6880486309        0.0042046925       -4.7509048665
 C       -11.1307961592        1.1531951091       -5.7731861060
 O       -10.3748692059        2.1198553375       -5.8781456913
 C       -12.4629867199        1.0693027577       -6.5798625145
 C       -12.4045997609       -0.2362362003       -7.4614044939
 O       -11.3748088039       -0.8687117750       -7.4649664633
 C       -13.6792942756       -0.7004427990       -8.0268425416
 C       -13.6312383620        1.0423086705       -5.5438629993
 C       -12.5745050584        2.2572970609       -7.4260868011
 C        -9.7392658956       -1.9529788688       -0.9101209892
 C        -9.4900426833        0.5980213237       -1.0209784035
 C        -2.5998419503       -0.2790033093        1.4413994750
 C        -1.3772924522        0.6352636273       -0.6026084599
 C        -2.8768997503       -6.6267943455       -2.3513968468
 C        -4.6448972108       -6.0176745298       -4.1275300006
 C        -9.7018535809       -8.2028683704        1.1691880343
 C        -8.4553781541      -10.0675115804        0.2268986756
 C       -11.6976751428       -6.0924196190       -5.5001370162
 C       -10.1321729241       -8.1621024899       -5.4006163053
 C        -6.7984523035       -1.7454113795       -7.3391801840
 C        -6.9645361217       -3.4992887554       -9.1492244365
 C        -1.7680665682       -4.3489762509      -12.2936033254
 C        -0.2235015678       -2.6368842126      -11.1979877608
 C        -1.0933630738        2.9770108807      -17.1705254075
 C        -2.2570172989        0.7416233318      -17.7522620714
 C         1.6184474209        1.0657364078      -21.5623247541
 C         2.7557453932       -0.9386231449      -20.4689853272
 C         9.2475924066        2.7398432992      -21.4558785422
 C         7.7601233109        4.5096694037      -20.2736119453
 C         2.3633958117        4.9327769354      -25.3250261382
 C         4.3597223622        3.2849566778      -26.0178894175
 H         2.6305168852        6.6138788570      -27.7950900312
 H         2.7561271845        4.7826048199      -28.0600017493
 H         3.7101723044        5.7921870009      -28.8578425623
 H         6.1130762581        6.4928932397      -24.9144582086
 H         6.7946014582        4.8520896098      -24.9431716900
 H         6.1272900229        5.8550985288      -22.1234364729
 H         7.5092319423        6.3143371493      -22.9904221157
 H         7.5187269959        0.3517192504      -20.6302211860
 H         7.3417181404        0.7749988157      -22.3982983068
 H         5.4306836227       -0.3341845034      -20.4021714805
 H         5.5372551712       -0.8234853081      -22.1673883550
 H         3.6908226607        0.9012877094      -17.3564625030
 H         2.4868849748       -0.3303986547      -17.9921061677
 H         1.5001523436        2.5372346054      -17.6530747478
 H         1.6703506699        1.4915036906      -16.1985620057
 H        -1.1671634309       -1.0276160566      -15.7585749255
 H        -2.6003966232       -0.2203923726      -15.0608571220
 H        -1.6255170907        0.0214333689      -12.8754299361
 H        -0.0653492942       -0.6122410740      -13.4028533749
 H        -2.7469739466       -3.9264238421       -9.7896805796
 H        -4.3435589436       -3.5744034916      -10.7104676354
 H        -4.4665801214       -1.3075640594       -9.0156780281
 H        -2.9122341081       -2.0897199310       -8.4497999136
 H        -5.7370867314       -6.0776471465       -6.8657274617
 H        -7.0838242591       -5.6449157803       -7.9862264685
 H        -7.2265915520       -6.2786070963       -4.9680146722
 H        -7.7357942749       -7.4526425172       -6.3205407598
 H       -11.3597880626       -7.6427003714       -3.0171611843
 H       -11.7115924015       -6.0945960079       -2.4845106900
 H       -10.8351438846       -6.8226786007       -0.5801845695
 H        -9.6220447848       -6.0019460750       -1.3400159742
 H        -6.0088224375       -8.6242818662       -1.2387647155
 H        -5.5710736114       -8.8164172713        0.3950901405
 H        -3.9314911325       -7.2197491300       -0.4972106140
 H        -5.2075321945       -6.2311317899        0.2952861061
 H        -1.5292219484       -4.0126238560       -2.9539922439
 H        -1.9693398368       -4.3298918756       -1.3723676573
 H        -2.8130495416       -1.5670720542       -2.5070425145
 H        -1.1142589493       -2.0374590056       -2.4527192736
 H        -5.1802489149       -0.4640302070        0.9701824763
 H        -5.0576395950       -1.7755269599       -0.2168238404
 H        -5.9923051111        0.4467336367       -1.5973068309
 H        -6.7607014396        0.7035792499       -0.1720403343
 H        -8.6177848311        0.4991079654       -4.6756251255
 H        -9.7674430849        1.2532330144       -3.4752369489
 H       -11.4960191772       -0.1235531995       -4.0085058126
 H       -10.5788428346       -0.9221844714       -5.2753712095
 H       -14.2621129724        0.0408418000       -8.6513689570
 H       -14.3329826509       -1.0623824658       -7.2193002215
 H       -13.6418456968       -1.5277278026       -8.7440203255
 H       -14.0152404324        0.1017283032       -5.1135946420
 H       -14.5494354451        1.5595101893       -5.8635205861
 H       -13.3114895898        1.7283035788       -4.7401583240
 H       -11.8208999338        2.3206256921       -8.1273243540
 H       -12.7462153872        3.1101122244       -6.7515740970
 H       -13.4225001993        2.2422263001       -8.0853099778
 H       -10.7312315695       -1.8689909929       -1.3872274229
 H        -9.8770683758       -1.9033327283        0.1694948967
 H        -9.3280905313       -2.9589246431       -1.1391477177
 H       -10.5853255931        0.7001147845       -1.1395524579
 H        -8.8950406756        1.3382488838       -1.5736340635
 H        -9.2190949008        0.7578574432       -0.0507599335
 H        -2.8395492434        0.7408676055        1.7333563405
 H        -1.7068827896       -0.6333165926        1.8613231856
 H        -3.3988266168       -0.8906637945        1.9270324190
 H        -0.4675742795        0.0685124937       -0.6261718741
 H        -1.3074843181        1.4420216178        0.1331550338
 H        -1.7237272483        0.9164096778       -1.6308893090
 H        -3.1989727931       -7.6223661754       -2.2465362154
 H        -2.3339195834       -6.1915596656       -1.4878400196
 H        -2.1256765286       -6.5649577455       -3.1524965874
 H        -4.9784006217       -7.0155979885       -4.2150359186
 H        -3.9086869083       -5.8181953553       -4.9033559621
 H        -5.4763836265       -5.3654066389       -4.4531717887
 H        -9.5943808319       -7.1030779946        1.3087725833
 H        -9.2521187677       -8.7867233017        2.0001415844
 H       -10.6632352146       -8.4851074563        0.9355521079
 H        -7.7872726061      -10.2242986392       -0.6181386831
 H        -9.3332678511      -10.7131465450        0.0443296422
 H        -8.0138398509      -10.3881190907        1.1770052878
 H       -11.8645169402       -6.1860046003       -6.5813454207
 H       -11.7038315572       -5.0599584894       -5.1582048931
 H       -12.3487904489       -6.7435124289       -4.9515029891
 H       -10.4267874414       -8.4911240308       -6.3728680324
 H       -10.7971565507       -8.7158345600       -4.6722470037
 H        -9.0949891579       -8.5257457969       -5.0664914557
 H        -7.9347949398       -1.6700764661       -7.3528652258
 H        -6.6207185233       -0.8926715957       -8.0512148940
 H        -6.4126416731       -1.4835835321       -6.3442803595
 H        -6.3860223130       -4.2857808663       -9.5195726365
 H        -7.0335748244       -2.6680623690       -9.7733805623
 H        -7.9217269185       -3.8999511155       -8.8495931112
 H        -2.1570228204       -4.9025118841      -11.4939550493
 H        -0.7833545436       -4.6548620228      -12.7095484046
 H        -2.6223706137       -4.5594413075      -12.9431261576
 H        -0.1159306649       -1.6579929528      -10.7425852378
 H         0.5144635798       -2.8246330476      -11.8573932761
 H        -0.0902632623       -3.3606507978      -10.3696903010
 H        -0.2085773437        3.4026658559      -16.5094424176
 H        -2.0784193293        3.3540509494      -16.9076133945
 H        -0.9340490514        3.3381485146      -18.1432101961
 H        -2.0661173129       -0.3263706764      -17.6436206340
 H        -2.2369824352        0.9389044378      -18.8169453554
 H        -3.1722561022        1.1025025495      -17.2198801753
 H         1.7338788045        0.7372624190      -22.5734511399
 H         1.4963636451        2.1066592430      -21.7046370248
 H         0.7590833206        0.5557083217      -21.1158922130
 H         2.7693608252       -1.5595512896      -21.3805100882
 H         1.9754541157       -1.1373893075      -19.8079312791
 H         3.6432508330       -1.3209075969      -20.0000770771
 H         9.4739069543        1.9355824167      -20.6919848214
 H        10.0610572698        3.4027195776      -21.1926368478
 H         9.3395237533        2.4650076048      -22.4791007372
 H         8.3400728312        5.4350216475      -20.4435194902
 H         8.2985688844        4.1829834429      -19.3750763460
 H         6.7326466550        4.8829914196      -20.0933477483
 H         1.8108950613        4.4008368260      -26.1651970867
 H         2.0993999055        6.0052861809      -25.2140234446
 H         2.1856580248        4.3529978734      -24.3988033001
 H         5.4828711139        3.2709005187      -26.2343493070
 H         3.8361720102        2.7128654475      -26.7848402512
 H         4.2126182096        2.7714611313      -25.1466256104
 Na       -7.3996061590       -3.8317857011       -3.0511660728
 Na        3.5663773099        3.8648905540      -21.3038821901
