232

 C         3.2151581975        5.6909680504      -27.9823094754
 C         4.3328960990        5.5391386775      -26.9267623177
 O         5.3913121053        6.0363781576      -26.9556812245
 C         3.9046489801        4.7040869274      -25.5080911847
 C         4.6585470275        5.1758569902      -24.2106976819
 O         4.1149149269        4.9384372175      -23.1578263515
 C         6.1731598821        5.6212054114      -24.3100331232
 C         6.8113535926        5.3222899696      -23.0084509210
 C         7.2257134665        3.9465062127      -22.8142629207
 O         7.2042054120        3.2049050271      -23.7291668416
 C         7.7082790840        3.3861042562      -21.3607152961
 C         6.7236192534        2.3616084392      -20.9548905278
 O         5.6484557345        2.6132979094      -20.3669600636
 C         6.8880408665        0.8837047398      -21.3173863381
 C         5.5339674911        0.0865103576      -21.4189726482
 C         4.1830131130        0.8508358035      -21.7353968719
 O         4.1318797445        1.8046677963      -22.4811112481
 C         2.9267919629        0.5520960110      -20.8004973785
 C         3.0164967312        1.4021588705      -19.4569575306
 O         3.1244400519        2.6055661030      -19.4712743053
 C         2.9333452243        0.8488959997      -18.0830249920
 C         1.6926181850        1.5005895233      -17.3555881540
 C         0.2650061685        0.9731948015      -17.8294237317
 O         0.1451800557        0.2179917972      -18.7740510114
 C        -0.9954190901        1.4353979814      -17.0370323525
 C        -0.9580723919        1.1045081627      -15.4956202892
 O        -0.4385621551        1.7916851756      -14.6960334397
 C        -1.6699524659       -0.2180854605      -15.0277700403
 C        -1.1973131875       -0.6539839091      -13.6679152788
 C        -1.5281646493       -2.1471420844      -13.5336041135
 O        -1.9488696585       -2.8539381610      -14.4318592115
 C        -1.5188886197       -2.8075353507      -12.1087179506
 C        -2.7530222772       -2.1161277410      -11.2515995058
 O        -3.0776261873       -0.9778100648      -11.2604844131
 C        -3.5069865200       -3.1739379507      -10.2738009335
 C        -3.9539968182       -2.4095808278       -9.0037245974
 C        -4.7932527989       -3.3418963554       -8.0081525693
 O        -4.1701622101       -4.1794154452       -7.4372461078
 C        -6.3368863028       -3.0971228930       -7.8223605062
 C        -6.6597329457       -4.0776347428       -6.6233659432
 O        -6.8877145659       -3.5707794461       -5.5071407195
 C        -6.7482433490       -5.5534984445       -6.9243303627
 C        -7.7286092658       -6.3299922649       -6.0490442214
 C        -9.1815050601       -5.8538417377       -6.1401259334
 O        -9.5707188561       -4.8270028294       -6.5885873534
 C       -10.1525436971       -6.6814453012       -5.1879884502
 C        -9.8516067633       -6.2910086884       -3.6749775782
 O        -8.9908463880       -5.4543846722       -3.4377066110
 C       -10.7691897709       -6.7702182956       -2.6050955663
 C       -10.1432286095       -6.8402760432       -1.2661623095
 C        -9.2403249192       -8.1359172600       -1.3194645683
 O        -9.0002870377       -8.7167211735       -2.3642357241
 C        -8.6067793500       -8.6138758593        0.0134949447
 C        -7.3525790816       -7.7057865008        0.2343306656
 O        -7.4894130954       -6.5988465273        0.7326496650
 C        -6.0877335217       -8.2381998995       -0.3154216400
 C        -5.2002035020       -6.9751960517       -0.4648104224
 C        -5.3239369720       -6.0209686057       -1.6600189195
 O        -6.4104144169       -5.6887769460       -2.0896957106
 C        -4.0798381171       -5.6933185464       -2.5955687066
 C        -3.7777250899       -4.2155943231       -2.5859443561
 O        -4.6015234694       -3.3689893504       -2.9307645495
 C        -2.2070710663       -3.8245653403       -2.0850575108
 C        -2.0450074518       -2.2257774048       -1.9823018087
 C        -1.9375282925       -1.7881052814       -0.4943998338
 O        -1.6867695689       -2.6109247760        0.3528951619
 C        -2.4191390512       -0.4082099878       -0.1110124490
 C        -3.7953358866       -0.0853362237       -0.8508295761
 O        -3.7886056460        0.6135551542       -1.8792602040
 C        -5.1188702236       -0.6845932429       -0.2456084052
 C        -6.4770010201       -0.0463386075       -0.8242780063
 C        -7.4053630711       -1.1270697052       -1.2535243050
 O        -7.0118242109       -2.2541262338       -1.3537344600
 C        -8.9616281559       -0.7732993409       -1.5405624974
 C        -9.0782274455       -0.9107435269       -3.1453138401
 O        -8.8113821100       -2.0184193180       -3.5925781648
 C        -9.4555277279        0.2483139906       -3.9785149936
 C       -10.7254877301       -0.0016370015       -4.7989193803
 C       -11.1083993206        1.2097628574       -5.6613675990
 O       -10.3535341035        2.1069840872       -5.8786128519
 C       -12.4033197974        1.1448166427       -6.4725890804
 C       -12.3770593474       -0.2205692598       -7.2566877009
 O       -11.3441449949       -0.8120257246       -7.5377867234
 C       -13.7220488562       -0.6939893714       -7.8477127668
 C       -13.6888537695        1.0174699624       -5.5257244096
 C       -12.5274770828        2.3146890623       -7.4988786831
 C        -9.7373128312       -1.9947564873       -0.7781313878
 C        -9.4043303961        0.4895339394       -0.8478901987
 C        -2.5843545672       -0.2472996155        1.5201478113
 C        -1.4206911156        0.6778092523       -0.6370521222
 C        -2.9031890795       -6.6623336337       -2.4778418639
 C        -4.6759929422       -5.9366358354       -4.0141823434
 C        -9.7399309162       -8.3475376021        1.2414267653
 C        -8.3994498074      -10.1653306855        0.0521045410
 C       -11.5900095621       -6.1665116259       -5.5614897267
 C       -10.0639143436       -8.2197059966       -5.2390009658
 C        -6.8495486574       -1.6735554939       -7.3491911142
 C        -7.0383134072       -3.5251389455       -9.1572158970
 C        -1.7490111292       -4.2926210975      -12.2543347913
 C        -0.2353082103       -2.4811255822      -11.3684762262
 C        -1.0323684274        2.9899361657      -17.3624651546
 C        -2.3325941717        0.8804536613      -17.7668890964
 C         1.6551631701        1.0772953537      -21.4409276902
 C         2.7163115130       -0.9275329976      -20.5170205337
 C         9.1819173238        2.7765854175      -21.4253022403
 C         7.7159315310        4.5429329735      -20.3057150641
 C         2.4041134568        4.8387844070      -25.1984615590
 C         4.3371873550        3.2575861370      -25.9113243204
 H         2.6131670141        6.5875389017      -27.8182001219
 H         2.6967703639        4.8308001753      -28.3141754482
 H         3.7521851196        5.9331466580      -28.8882982167
 H         6.3632099163        6.6237694195      -24.4727229089
 H         6.6062024306        5.0433872861      -25.1874267274
 H         6.0546252894        5.6128892420      -22.2709963131
 H         7.5305503683        6.0799032888      -22.8613171968
 H         7.5489383018        0.3543761158      -20.6021282142
 H         7.3750465798        0.8453706699      -22.3316064570
 H         5.4432485681       -0.5521269874      -20.6167163964
 H         5.7138905406       -0.5604503540      -22.3925762087
 H         3.7887496421        1.3043955970      -17.4979291692
 H         2.9907761486       -0.2477610033      -17.9898083105
 H         1.7132586167        2.6440971445      -17.5084984232
 H         1.7542999769        1.3395141458      -16.2668551152
 H        -1.4841204744       -0.9877890925      -15.8224525881
 H        -2.7329044820       -0.0400618443      -14.9285982070
 H        -1.6308978414       -0.0597804809      -12.9035817281
 H        -0.1192712443       -0.5181952501      -13.5371725771
 H        -3.0246382368       -4.1038451631      -10.0639636870
 H        -4.4887126380       -3.3307478760      -10.8197023696
 H        -4.5925881273       -1.5008515520       -9.2521945506
 H        -3.0738506591       -2.0837134662       -8.4544470669
 H        -5.7595383239       -5.9489596336       -6.6435476742
 H        -6.9050861901       -5.6714000642       -8.0196362212
 H        -7.3868808149       -6.2192159171       -5.0001854712
 H        -7.7545508743       -7.4426895955       -6.2756963306
 H       -11.1666271904       -7.7967539074       -2.7904414156
 H       -11.6850383224       -6.1912389368       -2.6255066667
 H       -10.8878289716       -6.8123364507       -0.5307810488
 H        -9.5834500928       -5.9341906667       -1.0903064027
 H        -6.2344929945       -8.8323160732       -1.2351284394
 H        -5.5494884574       -8.9009604787        0.3218731194
 H        -4.0977186580       -7.3609388588       -0.4969164374
 H        -5.4064827972       -6.4084592474        0.3871856028
 H        -1.4819633856       -4.2700386264       -2.7843339044
 H        -1.9713509022       -4.3569689031       -1.1725151084
 H        -3.0043866473       -1.7727610128       -2.2749978505
 H        -1.2467785196       -1.8927650889       -2.5406004107
 H        -5.1588685953       -0.3240984292        0.7521651525
 H        -5.0757303408       -1.7999873436       -0.1771824398
 H        -6.1892048067        0.4936411372       -1.7059029761
 H        -6.8887593445        0.7586273883       -0.2426922158
 H        -8.6718171081        0.2916443979       -4.7941947897
 H        -9.6458729776        1.2200587710       -3.4403397931
 H       -11.6054032263       -0.1649069427       -4.2541967435
 H       -10.5164047994       -0.8912908196       -5.3975886442
 H       -14.4383234483        0.0385707112       -8.0422083874
 H       -14.3110590111       -1.5615367326       -7.3584614225
 H       -13.6029702340       -1.0282898331       -8.9107170870
 H       -14.0462954637        0.0755634489       -5.3881619226
 H       -14.5742732672        1.5605396658       -5.9260233058
 H       -13.5719335615        1.5167871590       -4.5433349906
 H       -11.7554923631        2.1836329786       -8.2728008642
 H       -12.5830426476        3.2579257205       -6.9739247483
 H       -13.4298717328        2.3109602021       -8.1426873243
 H       -10.7841962105       -1.9057837003       -0.8873777053
 H        -9.5147039838       -1.8699734423        0.2541091042
 H        -9.4693397556       -2.9523462441       -1.0868621190
 H       -10.4616497002        0.5570281795       -0.8583755402
 H        -8.9689661304        1.3553373376       -1.2700748486
 H        -9.0928715431        0.4703188405        0.1794999009
 H        -2.8982775929        0.8096117257        1.7126735833
 H        -1.7920532393       -0.6553784674        2.1922947440
 H        -3.4427029321       -0.8033467036        1.8689869683
 H        -0.4866554607        0.4149613737       -0.0800327907
 H        -1.7998127572        1.6088412438       -0.3929964846
 H        -1.2957396250        0.4978190053       -1.6872188683
 H        -3.2366945340       -7.6197548849       -2.8762980134
 H        -2.5421433143       -6.6798692495       -1.4199966576
 H        -2.0898059518       -6.4071178937       -3.1030285886
 H        -5.1963928533       -6.9185372653       -4.2013557559
 H        -3.8906229723       -5.8017878732       -4.7889663162
 H        -5.3378846897       -5.1575417017       -4.2813543891
 H        -9.7944199735       -7.2638061314        1.2689466017
 H        -9.2962889772       -8.7741532645        2.1148339906
 H       -10.7264345410       -8.7686619486        0.9536173462
 H        -8.0653298006      -10.5618815691       -0.9075787917
 H        -9.3620079732      -10.5935284029        0.2176059644
 H        -7.7647075734      -10.5527361643        0.8537107963
 H       -11.6340821619       -6.3453947294       -6.6201846957
 H       -11.6147955287       -5.1165365490       -5.3667550701
 H       -12.3007776416       -6.7491388260       -4.9837375257
 H       -10.3365288351       -8.5331374838       -6.3276608650
 H       -10.8539381562       -8.7705871067       -4.6011965249
 H        -9.1086564675       -8.6403029915       -4.8670668438
 H        -7.9524781070       -1.7492902858       -7.0878096700
 H        -6.9781961984       -0.8255356576       -8.0522104724
 H        -6.2377295382       -1.3185175975       -6.4621750499
 H        -6.6235159094       -4.4774144751       -9.4217681390
 H        -6.9161444443       -2.7226662851       -9.9134007080
 H        -8.0331509456       -3.6935503234       -8.8553414818
 H        -2.3552694527       -4.5765441211      -11.4546890982
 H        -0.8518545808       -4.8938332417      -12.2630018708
 H        -2.4899505501       -4.6400638845      -12.9731347259
 H        -0.2240074865       -1.5226406339      -10.9632118023
 H         0.6369249231       -2.7189364875      -12.0378002040
 H        -0.1586903569       -3.1565764472      -10.5324257829
 H        -0.1581649399        3.4931381403      -17.0101822098
 H        -1.9599691147        3.4589925819      -17.0476649277
 H        -1.0514014269        3.0633109842      -18.4446352978
 H        -2.2741082790       -0.2147378995      -17.7150230566
 H        -2.2006145135        1.1629247827      -18.7888027047
 H        -3.2209952557        1.2990722221      -17.3192754567
 H         1.4419323253        0.6402520144      -22.4665334879
 H         1.7510190643        2.0821217803      -21.7050000328
 H         0.8295296343        0.8378112676      -20.7457410976
 H         2.6393790322       -1.3948410768      -21.4939104193
 H         1.8144792687       -1.0941992249      -19.9483424970
 H         3.4802223824       -1.5566855875      -20.0541348064
 H         9.3620040758        1.6933788837      -21.2683620836
 H         9.6619906471        3.1086982995      -20.5691998074
 H         9.6799885578        3.1336505412      -22.2856158607
 H         8.1020418797        5.4977577788      -20.7173411393
 H         8.3022567750        4.4226154523      -19.4480254291
 H         6.7310207889        4.8027449782      -20.1552725715
 H         2.0218226738        4.4953319119      -26.1405253277
 H         2.0052082414        5.7981696411      -24.8725761273
 H         2.2069941497        3.9814545257      -24.4887065103
 H         5.4477291221        3.2061642807      -25.7763557423
 H         4.0655400022        2.8814033941      -26.8657372000
 H         3.9279311526        2.5795122740      -25.1306680410
 Na       -7.3237139379       -3.7601247074       -3.1060896233
 Na        3.5533186727        3.8039465578      -21.2877665793
