232

 C         3.2881697129        5.6769252015      -27.9519190077
 C         4.2304248624        5.6780568610      -26.7973420519
 O         5.3654822478        6.0659167672      -26.9512344198
 C         3.8579663502        4.6823492857      -25.4807906089
 C         4.6901103287        5.1149184436      -24.2569803844
 O         4.1497893982        5.1034021786      -23.1710399523
 C         6.0581507059        5.7226202055      -24.2068760097
 C         6.8641630868        5.3356386932      -22.8983142913
 C         7.1406274146        3.7958935722      -22.8732176443
 O         7.1836518693        3.0043314831      -23.7810578515
 C         7.6788666411        3.3876019329      -21.2829153738
 C         6.6972264302        2.2909713965      -20.8643908337
 O         5.6029498183        2.6759164576      -20.2359972559
 C         6.8122197861        0.8216869030      -21.4136578257
 C         5.5120211585        0.0460021618      -21.4801787935
 C         4.2696107468        0.9345196925      -21.5863406507
 O         4.1279909718        1.7920223647      -22.4804294490
 C         2.9297238292        0.5560389447      -20.7391677497
 C         3.0772174893        1.4549555125      -19.4562625393
 O         3.0828385512        2.6460811543      -19.6217438486
 C         2.9467273083        0.8185408233      -18.0690430527
 C         1.6909743969        1.3766969932      -17.2652898675
 C         0.3316923618        0.9109617470      -17.8055924646
 O         0.2490082954        0.1448278858      -18.7526012260
 C        -0.9752236282        1.5380924569      -17.1734283452
 C        -1.0952817183        1.2406941088      -15.5583358564
 O        -0.5821531356        1.9787816890      -14.7678852772
 C        -1.7993606891       -0.0944352964      -15.1373821895
 C        -1.3022751453       -0.7144494653      -13.7820818850
 C        -1.7082646858       -2.1573573268      -13.5760030997
 O        -1.9136752389       -2.8571835468      -14.5120330099
 C        -1.5969455598       -2.8318703320      -12.0206764900
 C        -2.7899195116       -2.2155904955      -11.2963977302
 O        -2.9896842915       -1.0200254750      -11.5164520789
 C        -3.6427804013       -3.0837106774      -10.3807964694
 C        -4.1071012017       -2.3807058496       -9.0840102782
 C        -4.8244875747       -3.2928550048       -8.0611243888
 O        -4.2030515162       -4.1791748454       -7.4134424607
 C        -6.3672169348       -3.1495515354       -7.8222962080
 C        -6.7573914680       -4.0276923127       -6.5539123830
 O        -6.6586893312       -3.4730804627       -5.5193242937
 C        -6.7692760366       -5.5328374007       -6.8498399558
 C        -7.7027996011       -6.4077511436       -5.9761070810
 C        -9.1175874780       -5.9147189791       -5.9779068006
 O        -9.4630103053       -4.8545236083       -6.5804445450
 C       -10.1391724315       -6.6797338807       -5.1416136321
 C        -9.8862452867       -6.1670311643       -3.6402497303
 O        -9.0008857821       -5.4338554162       -3.2852868620
 C       -10.8532373960       -6.7109882873       -2.5864419618
 C       -10.0704316777       -6.9687229222       -1.2084881436
 C        -9.2210943044       -8.1639221180       -1.1694097893
 O        -8.8759752991       -8.7054173823       -2.2233925060
 C        -8.6982918649       -8.7306813598        0.1339265489
 C        -7.5192662215       -7.7505042856        0.3075575583
 O        -7.6318720844       -6.6845595232        0.7899483057
 C        -6.1737296263       -8.1692261488       -0.3690661482
 C        -5.0996309323       -6.9712551169       -0.3907408856
 C        -5.3285028466       -6.1731924517       -1.7462474878
 O        -6.4377600803       -5.6436676547       -1.8770627869
 C        -4.1150989861       -5.8304023440       -2.6939794858
 C        -3.8032728030       -4.2137762265       -2.4788888891
 O        -4.5819013480       -3.4546214112       -2.8794280003
 C        -2.4551867872       -3.7787425744       -2.0406903267
 C        -2.1676455431       -2.3348396396       -1.9266481732
 C        -2.0062206035       -1.8936692340       -0.4400732398
 O        -1.4403690924       -2.5726996076        0.3846488551
 C        -2.4971106644       -0.2847430588       -0.1900254528
 C        -3.8445584616        0.0793125774       -0.8860509802
 O        -3.8143196537        0.5945315914       -1.9742782041
 C        -5.1105138169       -0.5207147282       -0.3587990379
 C        -6.4471866941        0.1254955062       -0.9897892830
 C        -7.3589528018       -1.1978182285       -1.2858380264
 O        -6.8951557130       -2.2847810312       -1.4507606875
 C        -8.9201699475       -0.9073122086       -1.4068294413
 C        -9.1353078214       -1.0510506367       -3.0444280417
 O        -8.8641959720       -2.0984241137       -3.6148048012
 C        -9.4752631420        0.1980505957       -3.8484845766
 C       -10.7832573445        0.0298127744       -4.7630401550
 C       -11.0367518347        1.2533606812       -5.6402565047
 O       -10.2547515396        2.1437061926       -5.7838944849
 C       -12.4351169701        1.0848839246       -6.4498297023
 C       -12.4182960937       -0.1678681062       -7.3273201767
 O       -11.3796894799       -0.7335037706       -7.5654506655
 C       -13.7581401366       -0.7550852304       -7.8067588804
 C       -13.6792585646        1.1203897552       -5.4663141962
 C       -12.5077610040        2.2565040014       -7.4466349199
 C        -9.7479044764       -2.0149236623       -0.7730633229
 C        -9.2948872104        0.4370745632       -0.7844040765
 C        -2.5009160245       -0.2373097684        1.3428205096
 C        -1.3846535522        0.7516075180       -0.6097516384
 C        -2.8641107637       -6.7186400686       -2.5109859892
 C        -4.6312350549       -5.9088973760       -4.1239001443
 C        -9.6978339342       -8.4658191962        1.3828210971
 C        -8.3034933817      -10.1797578344       -0.1639754808
 C       -11.6045777361       -6.3272918701       -5.5809054629
 C        -9.9694152478       -8.2414581861       -5.2585037002
 C        -6.6911920285       -1.6690424768       -7.5105629802
 C        -7.1193548048       -3.4754228720       -9.1398998981
 C        -1.5950272890       -4.3447331996      -12.3014288372
 C        -0.2296242807       -2.2939100365      -11.4716123742
 C        -1.0060289723        3.0737437729      -17.3769797340
 C        -2.2829287251        0.9656221075      -17.7370136000
 C         1.6527125805        1.1244881893      -21.4441984285
 C         2.7588453413       -0.9881645897      -20.5498646288
 C         9.1018464484        2.9256349439      -21.4579857284
 C         7.6599203421        4.5935129509      -20.3315109389
 C         2.3618988158        4.6686490539      -25.1984205555
 C         4.3113595711        3.2615345235      -25.7337306418
 H         2.5067893921        6.3510642732      -27.8118517265
 H         2.9807150053        4.6595205625      -28.2916175615
 H         3.8148673190        6.0511483290      -28.8602455874
 H         5.9696133776        6.7863279912      -24.3129354204
 H         6.5707858433        5.4133582127      -25.0842224595
 H         6.3741298489        5.7567807006      -22.0324712545
 H         7.8236858029        5.9112256145      -22.9355188630
 H         7.3903959879        0.3293889861      -20.7335123301
 H         7.3676055889        0.8682391654      -22.3615116452
 H         5.4702012342       -0.6458392083      -20.5999021178
 H         5.4374458724       -0.5472557516      -22.3254778201
 H         3.7286287897        0.9913415646      -17.3514337311
 H         2.8868593051       -0.2512814400      -18.2367586702
 H         1.6999575059        2.4856177703      -17.3205617460
 H         1.7490933969        1.1363051353      -16.2232359956
 H        -1.6705887875       -0.7536713906      -16.0137098302
 H        -2.8732946150        0.1972694443      -15.0362120836
 H        -1.5983346811       -0.1336592221      -12.9661400221
 H        -0.2194175510       -0.6700933490      -13.7723299869
 H        -2.9005699865       -3.7857926355      -10.0941388929
 H        -4.4700190403       -3.5388253901      -10.8567831982
 H        -4.8626963488       -1.5753435218       -9.2836170478
 H        -3.2515545483       -1.8989850007       -8.6189686431
 H        -5.7211879758       -5.7680544034       -6.6215947594
 H        -6.8983685959       -5.7115644144       -7.9476012288
 H        -7.3522167899       -6.4703532119       -4.9921050791
 H        -7.7906176181       -7.3982497465       -6.3770040747
 H       -11.4536255812       -7.5902560241       -2.7991948791
 H       -11.6670804432       -5.9239176360       -2.4820163085
 H       -10.8076404311       -6.9624397068       -0.3934369006
 H        -9.3894757003       -6.1044278210       -0.9195816121
 H        -6.2578520316       -8.5443489863       -1.4346245570
 H        -5.6267815478       -9.0225706341        0.0535379356
 H        -4.1304968269       -7.4580684692       -0.3544081272
 H        -5.2920709117       -6.2528243470        0.4450958273
 H        -1.7979322049       -4.3964740675       -2.7505805272
 H        -2.1385067638       -4.2339354747       -1.0996934664
 H        -2.8574941819       -1.6553991399       -2.4687169511
 H        -1.0363904381       -2.1605154211       -2.1338840194
 H        -5.2817883922       -0.6577566323        0.7030646321
 H        -5.0218464259       -1.5169764649       -0.7706810211
 H        -6.2097427130        0.8123079536       -1.8037122407
 H        -6.9671355852        0.7858039999       -0.2314249144
 H        -8.6547832752        0.2566435741       -4.6540246109
 H        -9.6534364930        1.1017892832       -3.2891246797
 H       -11.7542155129       -0.1096232820       -4.2861350002
 H       -10.5670294325       -0.8210964330       -5.4348794652
 H       -14.6655148109       -0.2941952233       -7.4325785967
 H       -13.8375940557       -1.7667447992       -7.4567993276
 H       -14.0354295665       -0.7707321014       -8.8455453952
 H       -14.0092830502        0.1050514751       -5.2230414610
 H       -14.5489946614        1.5072979729       -5.9308335725
 H       -13.5795710044        1.6620314716       -4.5678933336
 H       -11.6859341557        1.9797232208       -8.1798043846
 H       -12.4070691600        3.1928476353       -6.9236991635
 H       -13.3648980371        2.4071434610       -8.1446370653
 H       -10.7619127870       -1.7821622392       -0.7260832829
 H        -9.3856973120       -2.1453383162        0.2084504344
 H        -9.6801057233       -2.8898757954       -1.3545295843
 H       -10.3557093446        0.5449660446       -1.0022374403
 H        -8.8470438710        1.3076884226       -1.1795358925
 H        -9.2173102939        0.4534550228        0.3481901120
 H        -2.8810052598        0.6963078509        1.7593804180
 H        -1.5137471553       -0.5866008109        1.7947286845
 H        -3.1316832868       -1.0408508143        1.7347009421
 H        -0.7558954147        0.9238219117        0.2400712162
 H        -1.8508785402        1.6239368431       -1.0725273828
 H        -0.8350719757        0.2332522721       -1.3286862508
 H        -2.9675136477       -7.7147720169       -3.0702823458
 H        -2.5951975033       -6.7905428279       -1.4854955388
 H        -2.0524476375       -6.3060233518       -3.1280305813
 H        -5.2066609102       -6.8567226462       -4.3369890662
 H        -3.8690284917       -5.8231150281       -4.9029277954
 H        -5.2978494681       -5.0680322425       -4.3506597157
 H        -9.7602530126       -7.4036475213        1.3612224908
 H        -9.2554422095       -8.8334702677        2.2759038818
 H       -10.6898062569       -8.9174115499        1.0567428373
 H        -8.0363101995      -10.3405053031       -1.1954796316
 H        -9.0394835849      -10.9019096643        0.1140438268
 H        -7.4417834454      -10.4184409504        0.4499616570
 H       -11.6593605247       -6.6350405249       -6.6002541575
 H       -11.6546321151       -5.2529370161       -5.5560705031
 H       -12.2718860763       -6.8198617611       -4.8708993751
 H       -10.0123702905       -8.4874448448       -6.3668649210
 H       -10.7995100504       -8.8133814804       -4.8365311210
 H        -9.0753144612       -8.6178557788       -4.7739999190
 H        -7.7096725580       -1.5300968335       -7.1980190030
 H        -6.7476171448       -1.0218068852       -8.3763997275
 H        -5.9290852260       -1.2010501022       -6.8380500120
 H        -6.8882339988       -4.5386873046       -9.4260380270
 H        -6.7093134199       -2.7156726224       -9.8387079034
 H        -8.1918118078       -3.3556505388       -8.9301768319
 H        -2.0822591719       -5.0481591784      -11.4569049090
 H        -0.5829074230       -4.6675924583      -12.4906222866
 H        -2.2639226686       -4.6578699618      -13.0695544997
 H        -0.1924427045       -1.1880050223      -11.3168568264
 H         0.6147551853       -2.7422278357      -12.1159509811
 H        -0.1233271777       -2.7189490302      -10.4963682358
 H        -0.1513046115        3.4475891857      -16.9549053080
 H        -1.8840525423        3.5223500178      -16.9209101469
 H        -1.0753324335        3.3088861745      -18.4899825756
 H        -2.2349152903       -0.1111289508      -17.6208392137
 H        -2.2984122105        1.2602944666      -18.7893706609
 H        -3.1105187712        1.3627594026      -17.2100387116
 H         1.2678872494        0.5701709899      -22.3089247997
 H         1.8820385852        2.1302428824      -21.9547794107
 H         0.8953677562        1.1610553489      -20.6777398343
 H         2.6884964175       -1.4496958309      -21.5231257963
 H         1.7348671608       -1.1240900617      -20.0156957563
 H         3.4576710207       -1.6356244455      -20.0052147904
 H         9.1537686716        2.1470525123      -22.1440531924
 H         9.4228360694        2.4178188763      -20.5539416310
 H         9.8073992057        3.6903149130      -21.8120418736
 H         8.1275691851        5.4783199512      -20.6604771084
 H         8.1131390124        4.3433422372      -19.3906811149
 H         6.6475788234        4.9111736791      -20.2614930833
 H         1.7470415825        4.4839512767      -26.0440187838
 H         2.0826857585        5.6293230499      -24.7255225951
 H         2.2820464525        3.8887175600      -24.4754259041
 H         5.3045155402        3.0613316181      -25.5121795694
 H         4.0804889959        2.9598775614      -26.7806558389
 H         3.7070015112        2.5411319892      -25.0352317506
 Na       -7.1765431838       -3.7371388886       -3.2354195735
 Na        3.6441285749        3.7610012545      -21.3731523936
