232

 C         3.0977335295        5.4671776306      -27.8574907538
 C         4.0268341424        5.5696171395      -26.6838671816
 O         5.0151728808        6.3610564566      -26.7514386168
 C         3.9241446930        4.7295301212      -25.4125657235
 C         4.6007847493        5.3520368002      -24.1656485608
 O         4.0971720314        5.4206152681      -23.0503915948
 C         6.1030648118        5.6886797070      -24.2669202175
 C         6.8020144645        5.4962390213      -22.9444653506
 C         7.1467456992        3.8954388067      -22.6305257332
 O         6.8120028117        3.0417085068      -23.4670716715
 C         7.6518481808        3.3495994790      -21.2883408579
 C         6.5747886137        2.2268943045      -21.0568610768
 O         5.7386256520        2.4791547950      -20.0739839040
 C         6.6249152599        0.8643821514      -21.6269738057
 C         5.4541754284        0.0822659385      -21.1372947256
 C         4.0958883527        0.7765860676      -21.4657941785
 O         4.0561426213        1.6526280592      -22.3733039079
 C         2.8117062796        0.4131824597      -20.7324191471
 C         2.7981801732        1.4775309068      -19.4921298016
 O         2.7244971886        2.6660566450      -19.6860899503
 C         2.8239381001        0.9760967715      -18.0519407140
 C         1.6700077645        1.3973085083      -17.2175754958
 C         0.2986132197        0.9492785983      -17.7609223279
 O         0.2606866058       -0.0667030212      -18.4181689375
 C        -0.9842638124        1.7124009595      -17.3581332024
 C        -1.2703083202        1.2474383434      -15.8756428995
 O        -0.9021470454        1.9162747834      -14.8747804383
 C        -1.8545391972       -0.1410419847      -15.6384349018
 C        -1.4881604940       -0.4842334387      -14.1657033788
 C        -1.6539648372       -2.0069674145      -13.8615859307
 O        -2.0610113538       -2.7386975139      -14.7271827360
 C        -1.5327872413       -2.5470966715      -12.4278792369
 C        -2.8012155896       -2.2008692691      -11.6100121362
 O        -3.2791658970       -1.0905206371      -11.8615683548
 C        -3.4506469570       -3.2026370049      -10.6242347045
 C        -4.4647776141       -2.5072366412       -9.7581494585
 C        -4.9031948490       -3.2781769760       -8.5589182470
 O        -4.0990429274       -4.0561883464       -7.9662361370
 C        -6.3697912488       -3.0483314484       -7.9205233240
 C        -6.6293118818       -3.9328025210       -6.6840760542
 O        -6.7113877484       -3.3732047931       -5.6220448079
 C        -6.6686985691       -5.4494290953       -6.9162089461
 C        -7.4823302738       -6.0500497523       -5.6838030007
 C        -8.9817822631       -5.7678717535       -5.7263254879
 O        -9.5381001711       -5.0723152278       -6.6117483141
 C        -9.9038955722       -6.6130356991       -4.8221216762
 C        -9.8582437900       -6.1726283771       -3.3660439201
 O        -9.0959411759       -5.3777149249       -2.8627640986
 C       -10.9077021127       -6.7871521669       -2.4509080185
 C       -10.4261122489       -7.2613650122       -1.0244634965
 C        -9.3208200556       -8.2617555857       -1.0946470367
 O        -8.8139067511       -8.6165898943       -2.1527635331
 C        -8.6826882678       -8.8804775296        0.1670372899
 C        -7.4131178621       -7.9776811262        0.4477089174
 O        -7.4490147636       -6.9716113371        1.1791424279
 C        -6.1269306432       -8.2607333466       -0.3229013334
 C        -5.1207351690       -7.0294175114       -0.1841350807
 C        -5.2147999324       -6.2044156862       -1.5591279584
 O        -6.3399119831       -5.7758116711       -1.9267505238
 C        -4.0456618027       -5.8806625334       -2.5358081723
 C        -3.8029685423       -4.3661342211       -2.4109068202
 O        -4.6592526472       -3.6481212545       -2.8697846205
 C        -2.4948391000       -3.8622041471       -1.8781255854
 C        -2.4924003282       -2.3463412226       -1.9123687020
 C        -1.9574536977       -1.6803194495       -0.5469795455
 O        -1.3119954201       -2.3068698931        0.2654859076
 C        -2.3543502196       -0.1151151250       -0.2581524409
 C        -3.7581158767        0.1389796475       -1.0422744378
 O        -3.7473848555        0.7549301328       -2.0710778717
 C        -4.9811443981       -0.3863914770       -0.3641943393
 C        -6.2983758166       -0.0052851862       -1.1936013407
 C        -7.2123531066       -1.2087771800       -1.3892458888
 O        -6.6525480382       -2.2965609290       -1.5549271562
 C        -8.7165837364       -1.1247819384       -1.4085548670
 C        -9.1161585828       -1.1918869718       -2.9902434130
 O        -8.8900586418       -2.2330502109       -3.6360349682
 C        -9.6294386903        0.1138211575       -3.6258036008
 C       -10.7393783154       -0.1984976085       -4.7494970261
 C       -11.1078332158        1.1266784872       -5.5304154675
 O       -10.2687268726        2.0381963643       -5.5129651072
 C       -12.4196528107        1.2031557526       -6.3527945836
 C       -12.5072800575       -0.1068281036       -7.1915374171
 O       -11.4973409996       -0.5808908623       -7.6637988164
 C       -13.8801033864       -0.6799269079       -7.5025803849
 C       -13.6474662792        1.2986781970       -5.4700237942
 C       -12.2572737853        2.3222562329       -7.4158032229
 C        -9.3878148795       -2.4036280708       -0.6840498922
 C        -9.1814060051        0.1688092977       -0.6519997960
 C        -2.3072636815        0.1641450749        1.2688439721
 C        -1.1956594684        0.7256850794       -0.9654043029
 C        -2.8186098517       -6.7425681422       -2.2593496674
 C        -4.5111382847       -6.1113015526       -4.0571898342
 C        -9.6886176497       -8.8185763266        1.3048592846
 C        -8.1883876613      -10.2827021184       -0.2836147994
 C       -11.3583215731       -6.3606664772       -5.3535984562
 C        -9.6853031821       -8.1305863405       -4.9589595265
 C        -6.6258610578       -1.6200422759       -7.4780645520
 C        -7.3341568419       -3.2948404012       -9.0911028841
 C        -1.3484474271       -4.0629296339      -12.5761398428
 C        -0.3307962349       -1.7963649118      -11.6553840730
 C        -0.7211972815        3.2139504788      -17.4439171880
 C        -2.1775382629        1.3359075149      -18.2400255408
 C         1.6239587935        0.9029939027      -21.6617045484
 C         2.6917121595       -1.0634828853      -20.3834816059
 C         9.1696937134        2.8208136988      -21.3899265053
 C         7.6194895154        4.4707687555      -20.1803005724
 C         2.3122304511        4.4579773465      -24.9926936512
 C         4.4328671788        3.3108927934      -25.7089710649
 H         2.2076113186        5.9811166326      -27.6368086181
 H         2.8356387442        4.4528212374      -28.2479132508
 H         3.5276356800        6.0373231946      -28.6823554734
 H         6.2627236021        6.5793777341      -24.8569096251
 H         6.4833493108        5.0041160969      -24.9405659445
 H         6.1971971108        5.8340152774      -22.1185650893
 H         7.7177724640        6.1105109015      -22.9034353869
 H         7.5774400317        0.4768483370      -21.3316068979
 H         6.5545447411        0.8851496514      -22.7705667919
 H         5.5624099929       -0.2061463699      -20.0275063892
 H         5.5072185757       -0.8184354830      -21.5574198691
 H         3.7784262677        1.2958193838      -17.6093556052
 H         2.9182033291       -0.1232523022      -17.9032309017
 H         1.5680701994        2.4746174685      -16.9865067230
 H         1.6690804688        0.8822410066      -16.2311262154
 H        -1.4364559797       -0.7407869609      -16.4599726868
 H        -2.9745017098       -0.2056716912      -15.7641536054
 H        -2.1310575068        0.0370457239      -13.4972893133
 H        -0.4696199331       -0.1435735879      -13.9755137350
 H        -2.6211559707       -3.5113182665       -9.9662528851
 H        -3.9358848837       -3.9006449321      -11.2490397311
 H        -5.4129684077       -2.4395455091      -10.3448304040
 H        -4.2614824244       -1.4327020850       -9.5452512636
 H        -5.6230738869       -5.8145412682       -6.9334508754
 H        -6.9225330417       -5.7111221200       -7.9764668911
 H        -7.1446957633       -5.6198758750       -4.7490553699
 H        -7.3723390617       -7.1377362676       -5.6085894124
 H       -11.1988976393       -7.6992851029       -2.9299809481
 H       -11.8151004968       -6.1565779250       -2.2536755219
 H       -11.2473636821       -7.7492756324       -0.5543268159
 H       -10.1844587827       -6.3842509026       -0.4471441625
 H        -6.1882157290       -8.5670844861       -1.3644831266
 H        -5.6827466197       -9.1617497286        0.0686833277
 H        -4.1560336075       -7.3901360595       -0.0363254609
 H        -5.3983335035       -6.4642313632        0.7532771800
 H        -1.5560488383       -4.2971848733       -2.2721593064
 H        -2.5839080537       -4.3230704303       -0.9332113750
 H        -3.4379595351       -1.9261766179       -2.1229116790
 H        -1.8165265078       -2.1119923166       -2.8235233230
 H        -5.1086097647       -0.0915795893        0.6909425086
 H        -5.0452385523       -1.4664128031       -0.3893882818
 H        -5.9959497262        0.2528602698       -2.1793878197
 H        -6.8784221258        0.8273423338       -0.7455925274
 H        -8.6549861750        0.5030125719       -4.1455914398
 H       -10.0811936664        0.8524343186       -2.9516451996
 H       -11.6326082529       -0.6514762835       -4.3753623653
 H       -10.2235580218       -0.8293206792       -5.4246128765
 H       -14.1529119785       -1.5958770981       -6.8509492556
 H       -14.0469654673       -1.0870145847       -8.4502274286
 H       -14.7823552420       -0.0380809525       -7.4177960739
 H       -13.6579233275        0.4857738128       -4.6470615062
 H       -14.5017451755        1.1731293681       -6.0750805522
 H       -13.7717806592        2.2121886819       -4.9447607701
 H       -11.3643442489        2.1778493015       -8.0538540403
 H       -11.9132713556        3.1830780858       -6.8023907696
 H       -13.1714909314        2.6681031902       -7.9240708944
 H       -10.4276833179       -2.5662818685       -0.8388795012
 H        -9.1750251836       -2.2714192385        0.3588375169
 H        -8.8863291796       -3.2932232575       -1.0747246907
 H       -10.2030084801        0.3011215681       -0.4907134612
 H        -8.9242498542        1.0531785917       -1.1273293803
 H        -8.7615577464        0.1864299777        0.3280853761
 H        -2.5413395979        1.2150211443        1.3349654132
 H        -1.3090211031        0.1217633945        1.7333177313
 H        -3.0193481860       -0.3797929617        1.9388233397
 H        -1.7532974967        1.3685447388       -1.5877905431
 H        -0.3985798967        0.0918076786       -1.4548172902
 H        -0.7448207291        1.3126564756       -0.2039829719
 H        -2.9990998671       -7.8047550475       -2.4978965842
 H        -2.5144947926       -6.7922245129       -1.2683038320
 H        -2.0197909095       -6.4754552540       -2.9675315187
 H        -4.9988649208       -7.0576528786       -4.2676884253
 H        -3.6813488920       -6.0632223319       -4.7373228214
 H        -5.2395673141       -5.3166769571       -4.4110149016
 H       -10.0525570562       -7.8023545412        1.4222606418
 H        -9.1966637794       -9.0730389489        2.2508213148
 H       -10.4145266077       -9.6017754794        0.9873886216
 H        -7.5378239950      -10.2677870754       -1.1417797195
 H        -8.9892269140      -10.9717859224       -0.5381490985
 H        -7.5794702161      -10.7570701205        0.4923087273
 H       -11.3139179231       -6.6285148993       -6.3793405331
 H       -11.5701601544       -5.3093601625       -5.2551224421
 H       -11.9496223897       -6.9992462767       -4.7311462975
 H       -10.1088834538       -8.4544649716       -5.9404641733
 H       -10.2866715501       -8.6398547302       -4.1401924857
 H        -8.5390625535       -8.3644681348       -4.9791887258
 H        -7.7130757579       -1.6455048510       -7.2302731156
 H        -6.4655114206       -0.8978752681       -8.3528897089
 H        -5.9851591854       -1.1621445483       -6.6685507053
 H        -6.8961090143       -4.0739836726       -9.6802298046
 H        -7.3936583847       -2.3993417235       -9.6205012278
 H        -8.2797254572       -3.5925116297       -8.6534830485
 H        -0.8434784882       -4.5910752902      -11.7175503086
 H        -0.6840355046       -4.3458684583      -13.4270924835
 H        -2.2332434502       -4.5924552243      -12.9183012257
 H        -0.5889360521       -0.7173273073      -11.5099605931
 H         0.5303738031       -1.7808056923      -12.3010805543
 H        -0.1082151319       -2.3453517404      -10.7860620823
 H        -0.3433073487        3.5365385118      -16.4699571676
 H        -1.6360695004        3.7051226777      -17.4965307621
 H        -0.0675972787        3.4118274768      -18.2844815414
 H        -2.4712599399        0.3046992829      -18.1200731185
 H        -1.9174506198        1.6959131397      -19.2456040382
 H        -2.9980006611        1.9236683283      -17.8840727138
 H         1.7943813484        0.7728221056      -22.7016655494
 H         1.5241531067        2.0496518875      -21.4642718686
 H         0.6974482432        0.4381693375      -21.3977100208
 H         2.5552102053       -1.6247232144      -21.2769738390
 H         1.8413062553       -1.4358701598      -19.7852375441
 H         3.5987646559       -1.3495361782      -19.9198092882
 H         9.8543747294        3.3672796098      -20.8394223208
 H         9.4727763822        2.7614304202      -22.4223666251
 H         9.2910623004        1.7719339529      -21.0179147030
 H         8.1363280899        5.2522629332      -20.6024959277
 H         8.0952835536        4.0867711132      -19.2927397407
 H         6.6420058264        4.8596126214      -19.8711399334
 H         1.9801520205        3.7854155640      -25.7871196591
 H         1.6772890895        5.3769081553      -25.1575900227
 H         2.2428317743        4.0934130267      -23.9682507090
 H         5.2938005999        3.2454384684      -26.3113525437
 H         3.5916250923        2.8278836769      -26.2501604102
 H         4.7171718649        2.7778837752      -24.7972626324
 Na       -7.3343881380       -3.8574407842       -3.3337797219
 Na        4.0274147251        3.7654303625      -21.2563574893
