232

 C         3.0340496097        5.5639937120      -27.6909521147
 C         3.7523074549        5.7321896141      -26.3782491781
 O         4.4067032457        6.6737128398      -26.1519936554
 C         3.7642508771        4.6076506513      -25.2083137939
 C         4.6234093188        5.0920691464      -24.0538344925
 O         4.1998445486        5.0565830523      -22.8991659744
 C         6.0373459491        5.6733099847      -24.1514903270
 C         6.8173234622        5.5071338696      -22.8726622746
 C         7.0180788439        3.9233111952      -22.7388173269
 O         6.7820825656        3.0918657968      -23.5459820122
 C         7.7138082910        3.2813440854      -21.3411274325
 C         6.6282643905        2.3609400490      -20.8214036396
 O         5.6944856824        2.6838086198      -19.9561396986
 C         6.6028201297        0.9547239419      -21.3676240203
 C         5.3544518447        0.1198575150      -20.9312577236
 C         4.1023995929        0.8221394616      -21.4288180508
 O         4.1945440300        1.5960927896      -22.3673522915
 C         2.7157426970        0.3422240971      -20.6991197061
 C         2.5818671191        1.3321018805      -19.5396204262
 O         2.3387505465        2.4865999558      -19.8277436085
 C         2.7980724901        1.0339103038      -18.0372585305
 C         1.6974352229        1.8541844571      -17.2996427647
 C         0.3368234964        1.3295486767      -17.9060962812
 O         0.4252826986        0.2444507813      -18.4440506704
 C        -1.0610475295        1.9629321221      -17.6446345164
 C        -1.4297997575        1.4337947476      -16.1435068527
 O        -1.1560243730        2.1577883464      -15.2497530055
 C        -1.8519042070        0.0177676895      -16.0532846845
 C        -1.9937116816       -0.3799267354      -14.5474784357
 C        -1.9427980596       -1.8704079757      -14.1460183515
 O        -1.8899599718       -2.7177238102      -15.0022956079
 C        -1.7490763452       -2.3422897748      -12.6496107319
 C        -3.1022366587       -2.0595446180      -11.8975556511
 O        -3.7506664728       -1.1006349212      -12.0881150795
 C        -3.3739542714       -2.8894421556      -10.5736038986
 C        -4.8663811107       -2.7473606667      -10.2172046085
 C        -5.3388084338       -3.4502438211       -8.7631294592
 O        -4.6951316482       -4.3354028795       -8.3602057374
 C        -6.5581500728       -2.9578780383       -7.9610897096
 C        -6.6713916267       -3.8249060884       -6.5503027155
 O        -6.6525009675       -3.1933494122       -5.4881265313
 C        -6.6559917719       -5.3526942653       -6.6294234086
 C        -7.4963220181       -6.1000312329       -5.6411855031
 C        -8.9795858095       -5.6870299843       -5.7885101655
 O        -9.2504860713       -4.7620177012       -6.4639067317
 C       -10.0426654792       -6.5669872923       -4.9904917966
 C        -9.7947861570       -6.3181583000       -3.4087989403
 O        -8.9394080143       -5.5020237771       -3.0956790698
 C       -10.8100632612       -7.0730445836       -2.4581890555
 C       -10.2761981186       -7.3211807101       -0.9884304938
 C        -9.0196204753       -8.3215856192       -0.9683736637
 O        -8.4111373726       -8.4957102174       -1.9815110932
 C        -8.6095613667       -9.0725205412        0.3853733147
 C        -7.3347124659       -8.1200171314        0.6909060999
 O        -7.2375322146       -7.4265767747        1.6739281844
 C        -6.2551486446       -8.2781785088       -0.2773638700
 C        -5.0714309195       -7.2252768125       -0.1740492684
 C        -5.1446746398       -6.4073460246       -1.5303679359
 O        -6.1463910141       -6.0188069045       -2.0455500180
 C        -3.8288320389       -6.1570999580       -2.2640852775
 C        -3.7331403797       -4.5791201639       -2.4996413419
 O        -4.5241530057       -4.0428283845       -3.2294634384
 C        -2.5546344335       -3.6959201952       -1.8352290844
 C        -2.5638448115       -2.2146608206       -2.0478842972
 C        -2.1468055263       -1.5477670354       -0.6851062769
 O        -1.9051250353       -2.2124980415        0.2745622502
 C        -2.2601168664        0.0767559237       -0.5879597978
 C        -3.6411178348        0.4337413140       -1.1236697209
 O        -3.8648682477        1.1771176115       -2.0984482008
 C        -4.8064708138       -0.2051669588       -0.4152448226
 C        -6.2410274967        0.1307227367       -1.0423990695
 C        -6.9188758517       -1.2485624625       -1.3387508275
 O        -6.2542408885       -2.1979278598       -1.6955485858
 C        -8.5883943279       -1.3195034839       -1.2988735269
 C        -9.0088118709       -1.3422826578       -2.9387289324
 O        -8.5911514724       -2.1334339189       -3.6795962397
 C       -10.0890435941       -0.2774040707       -3.2861099788
 C       -10.5293971657       -0.3132527348       -4.7789848744
 C       -10.8431929350        1.1312227586       -5.3225659725
 O       -10.2409180548        2.1165872697       -5.1147015884
 C       -12.2379940226        1.1103683178       -6.1936941261
 C       -12.4750103641       -0.0900161034       -7.1751310350
 O       -11.5828976156       -0.8387093577       -7.5460160903
 C       -13.9485961905       -0.4036004011       -7.4369583377
 C       -13.4124393165        1.3578382343       -5.1992178879
 C       -12.1999293583        2.3193404908       -7.1570589083
 C        -9.1044440611       -2.6715281957       -0.8203234112
 C        -9.2538436674       -0.1260246117       -0.5897779276
 C        -2.0012373044        0.4845287698        0.8669991476
 C        -1.1858580677        0.6483415655       -1.6295987843
 C        -2.5470445498       -6.5703566408       -1.5386676187
 C        -3.7129421994       -6.6553802788       -3.6902882165
 C        -9.5424790904       -9.1596834477        1.5535696443
 C        -8.3036590075      -10.4995945975        0.0322550583
 C       -11.5321588285       -6.1575687531       -5.3222857795
 C        -9.8523651039       -8.0816213938       -5.2021584020
 C        -6.2813282514       -1.4767445479       -7.6393310403
 C        -7.8325706112       -3.1761342491       -8.8185652573
 C        -1.2346409686       -3.7856924044      -12.7236161060
 C        -0.5705781617       -1.5720118786      -11.9504839648
 C        -1.0123959567        3.5595670484      -17.5970754509
 C        -2.1231300769        1.4374800408      -18.6217370344
 C         1.6212258760        0.4998912790      -21.7798615820
 C         2.8485231478       -1.1970866921      -20.3250021622
 C         9.0542901722        2.6032757068      -21.5648921780
 C         7.8474948387        4.3768765809      -20.2387611547
 C         2.3807439668        4.2202392568      -24.7773277515
 C         4.5045232625        3.3212831469      -25.7590703516
 H         2.0298665398        6.0592234700      -27.6000121760
 H         2.7440154769        4.6199568281      -28.0075420997
 H         3.6253527137        6.1112806555      -28.3843360250
 H         6.1079904621        6.6515001385      -24.5186143401
 H         6.5805921727        5.1241377296      -24.9073733241
 H         6.3351022870        5.8968354856      -22.0042662461
 H         7.8031759483        5.9546515129      -23.0971241891
 H         7.5675080838        0.4731252949      -21.0147574435
 H         6.6098575714        1.1292286519      -22.4001802822
 H         5.3692345755        0.0382918692      -19.8663047183
 H         5.3216575245       -1.0390368508      -21.1702590271
 H         3.7658266350        1.4225351768      -17.6415288227
 H         2.8136403443       -0.0166630220      -17.7413095161
 H         1.7498169422        2.9112498590      -17.4430107092
 H         1.5991855081        1.6515305671      -16.1889934081
 H        -1.2513219098       -0.6973869284      -16.6270105216
 H        -2.8674242737       -0.0435264050      -16.5547496400
 H        -2.9796368918       -0.0600613924      -14.1736051511
 H        -1.2407846682        0.0941954282      -14.0148441410
 H        -2.7071695833       -2.5221238333       -9.7989957086
 H        -3.1993361704       -3.9348203883      -10.7953028322
 H        -5.4085315187       -3.3116786208      -10.9927222314
 H        -5.2906610336       -1.6929184204      -10.2606128858
 H        -5.5319173493       -5.5432284437       -6.5750388329
 H        -6.7892377553       -5.6909193129       -7.6477759165
 H        -7.2296731956       -6.0136901165       -4.6106047255
 H        -7.4812098267       -7.1096986888       -5.8548386709
 H       -11.2184905020       -8.0388145102       -2.7931826291
 H       -11.5814658427       -6.2950175463       -2.3750787325
 H       -11.1370591511       -7.6582975006       -0.3894763080
 H        -9.9871160276       -6.3752221535       -0.6341811999
 H        -6.6064075944       -8.2215899780       -1.2850870154
 H        -5.8301805326       -9.3023116251       -0.2946487629
 H        -4.1311967772       -7.7826025903        0.0999786194
 H        -5.2401819261       -6.6436329542        0.7355756980
 H        -1.7094003972       -4.1272049738       -2.2829473094
 H        -2.4191052431       -3.7608091818       -0.7595538731
 H        -3.6109425652       -1.8179760962       -2.2779641069
 H        -2.0018079901       -1.8139764612       -2.8976795662
 H        -4.7447001052        0.0787297134        0.6639405910
 H        -4.5704305774       -1.2610167956       -0.4505631932
 H        -6.0974823134        0.7519876362       -1.9123629804
 H        -6.8244531516        0.5617610768       -0.2549471984
 H        -9.7539574726        0.7826634667       -3.0769775001
 H       -10.9340966553       -0.4883238423       -2.5306250247
 H       -11.2943872938       -1.0575828968       -5.0032784890
 H        -9.6926060552       -0.5698840183       -5.3526045154
 H       -14.4624282669       -0.8643882595       -6.6249922922
 H       -14.3199760596       -1.0948522306       -8.2844503893
 H       -14.4925282822        0.5094894812       -7.6906755953
 H       -13.3980190630        0.4784460561       -4.6192090638
 H       -14.4202787943        1.4336311399       -5.6866819703
 H       -13.1965653295        2.1842260562       -4.4780864229
 H       -11.4017608226        2.1756704045       -7.8538515254
 H       -11.8039063862        3.2270757445       -6.6309509188
 H       -13.1344919885        2.4442308537       -7.7004066587
 H       -10.1466749587       -2.5075044778       -0.4530048398
 H        -8.5495072478       -3.0316536437        0.0699272461
 H        -9.0263559823       -3.4450647419       -1.5863449931
 H       -10.2950948527       -0.2952099965       -0.5553794715
 H        -9.1495060070        0.7958007444       -1.0958494298
 H        -9.0030771855        0.1327032646        0.3785635068
 H        -2.3829837511        1.4221770270        1.2982199062
 H        -0.9855567438        0.3842289638        1.1534238536
 H        -2.5525351005       -0.2681062967        1.4462119865
 H        -0.3021118341        0.2144700555       -1.1646464992
 H        -1.0231978325        1.6940528700       -1.6259554145
 H        -1.3106087292        0.1088517128       -2.5982933053
 H        -2.5442958677       -7.5957382266       -1.6374251488
 H        -2.3866488179       -6.3626124222       -0.4575858240
 H        -1.6384263006       -6.1855101296       -1.9108378812
 H        -3.3853838481       -7.6889980398       -3.6918334409
 H        -2.9135505997       -6.1071815573       -4.2332352359
 H        -4.5924493259       -6.6152171999       -4.2845166204
 H        -9.8805832613       -8.1116062034        1.7157928382
 H        -9.1637613090       -9.7051115395        2.4585599462
 H       -10.3984926202       -9.6760949623        1.1362553196
 H        -7.6834065267      -10.5348543713       -0.8716740439
 H        -9.1459190106      -11.1701229594       -0.1794729059
 H        -7.6723967907      -11.0178265360        0.7515707368
 H       -11.7670022889       -6.5842570396       -6.2862792056
 H       -11.5211105254       -5.0876681202       -5.2497411509
 H       -12.1346399504       -6.6001743743       -4.5693532038
 H        -9.8629203341       -8.3585223145       -6.3500837370
 H       -10.6070734556       -8.6813894230       -4.5684553861
 H        -8.8485953652       -8.3316695569       -4.8181560981
 H        -6.3858230599       -1.3145499003       -6.5274158156
 H        -6.6965995537       -0.8084305949       -8.4323562362
 H        -5.1880751732       -1.3624945265       -7.6866316846
 H        -8.0396111722       -4.2023585992       -8.7211053566
 H        -7.5652191622       -3.0210795628       -9.8418203736
 H        -8.5625313526       -2.4899555803       -8.4821051979
 H        -0.5500742224       -4.1541528491      -11.9685062771
 H        -0.6085045972       -3.8834176133      -13.6461326831
 H        -1.9039482540       -4.6354653292      -13.0169597245
 H        -0.8174696024       -0.5989832969      -11.5944815038
 H         0.1734793193       -1.5770645478      -12.7163835615
 H        -0.1743059459       -2.2346886063      -11.1388081299
 H        -0.2076688493        3.7988444567      -16.9229745528
 H        -1.9933061253        3.8534353298      -17.2361597688
 H        -0.8356242914        3.8997766009      -18.5626299461
 H        -1.8454793153        0.4217064803      -18.8686325971
 H        -2.1422225372        1.9372969258      -19.5754864534
 H        -3.1300419234        1.5086899287      -18.1547799329
 H         1.3663094994       -0.5525703122      -22.0668780578
 H         1.8794524637        1.1057743530      -22.5622196731
 H         0.7508614188        1.0306658572      -21.3343197418
 H         3.2736032137       -1.7133755242      -21.2120132827
 H         2.0176101451       -1.7804142985      -20.1216469482
 H         3.5282922579       -1.4483544467      -19.4865085748
 H         9.1123259153        1.9081105212      -22.4280093499
 H         9.3398787920        1.9889813612      -20.7230576839
 H         9.6892399406        3.4286161317      -21.5794702703
 H         8.4849390391        5.1800180746      -20.6667987697
 H         8.3157132275        4.1197262068      -19.3398233717
 H         6.8570741338        4.5893187459      -20.0062300499
 H         1.8646896871        3.5435341301      -25.5242164716
 H         1.7795986328        5.1340109635      -24.6257662456
 H         2.5155540139        3.6498974532      -23.8066320224
 H         5.5480600219        3.5158293206      -26.1394885459
 H         3.8901535113        3.0448516181      -26.5972575603
 H         4.5315378514        2.4843598072      -25.0687428916
 Na       -6.9354108283       -3.9096665067       -3.4568915371
 Na        3.9106319485        3.6510424649      -21.0513735620
