232

 C       -22.8221393489       -5.8667902944       -2.6157536962
 C       -21.3835059016       -5.5946098117       -3.0026197965
 O       -20.4590093158       -5.6989396568       -2.2141278006
 C       -21.0549145824       -5.3867813818       -4.4729686535
 C       -20.6085408284       -3.7813927418       -4.4126996562
 O       -20.4891925796       -3.3042455790       -3.3325173989
 C       -20.0852064695       -3.0065025785       -5.6819791461
 C       -18.8871900284       -2.0766335897       -5.3353171208
 C       -17.7726357928       -2.7866287682       -4.5829581082
 O       -17.8893425749       -4.0029590370       -4.5665943756
 C       -16.4282173292       -2.1581874794       -3.9918436869
 C       -16.2105844539       -2.9817760691       -2.6467688630
 O       -17.1260063193       -3.0267887223       -1.8889165061
 C       -14.8927223697       -3.5514356287       -2.1660190638
 C       -14.9079582237       -4.3859858347       -0.9276661302
 C       -15.4996174971       -5.8009050944       -1.1811497014
 O       -16.4874995482       -5.9476545688       -1.8796957468
 C       -14.7962194555       -6.9854760948       -0.5399849148
 C       -13.3571561002       -7.1560781461       -1.2662682049
 O       -12.9171718730       -6.2598911584       -1.8991429569
 C       -12.6180922165       -8.5357901581       -1.1140041372
 C       -11.2777569903       -8.4070808968       -2.0117488689
 C       -10.2519180050       -9.5545229845       -1.7761418430
 O       -10.2397248833      -10.1625481446       -0.7046392605
 C        -9.2774608481      -10.0042962072       -2.9046074114
 C        -7.9908752243       -9.0769749537       -3.0780606389
 O        -7.9763441926       -7.9439874603       -2.6563442591
 C        -6.7166295814       -9.6649957605       -3.8259162564
 C        -5.7536570100       -8.4822849719       -4.1447226556
 C        -6.4518046766       -7.5015495082       -5.1647345640
 O        -7.1571286362       -7.9579420151       -6.0209903814
 C        -6.1196018019       -5.8906246696       -5.0237105627
 C        -4.7595110799       -5.8712489923       -5.8903161579
 O        -3.6819751221       -5.9256399807       -5.3871567277
 C        -4.8351827904       -5.9604722461       -7.4265347195
 C        -5.2474098695       -4.7604913869       -8.2210979083
 C        -4.8341838294       -4.8540192427       -9.7083803471
 O        -4.4940520351       -5.9160004591      -10.1917810232
 C        -4.8283960274       -3.5946086590      -10.6002527964
 C        -3.2449296165       -3.1988656770      -10.5686414344
 O        -2.7866812667       -2.5991597904       -9.5799708924
 C        -2.4425024725       -3.4733103876      -11.8206518599
 C        -0.8884823551       -3.7004407013      -11.6803801991
 C        -0.0832433306       -3.5038308137      -12.9633863168
 O        -0.3121874419       -2.6896311829      -13.8283409551
 C         1.2834185114       -4.2518642830      -12.9074412813
 C         2.4150814261       -3.1640182581      -13.2208228254
 O         2.9870517434       -3.0363620327      -14.2836333769
 C         2.8229922867       -2.2847820681      -12.0025351365
 C         3.8107652526       -1.2261788946      -12.4347549095
 C         3.6784507294        0.0763351003      -11.8335147498
 O         2.5798950326        0.5377576382      -11.5313989333
 C         4.8441324653        0.9392396181      -11.5042662174
 C         4.7441615647        2.2065871142      -12.5396219670
 O         5.3811065754        2.0849233531      -13.5444765957
 C         3.9293811540        3.4409325210      -12.1549347968
 C         4.8535117312        4.6192920156      -11.6435458179
 C         5.4293653168        5.3040190524      -12.8943863535
 O         5.0394450386        4.9711206406      -14.0017721692
 C         6.6043777696        6.2578010793      -12.8147762291
 C         7.1282148114        6.7047079366      -14.2727757323
 O         7.0453959188        7.8508943184      -14.6588272751
 C         8.0497999718        5.8355330490      -15.1485040906
 C         8.2433952017        6.2523500707      -16.6451173159
 C         6.9889610051        5.8963304511      -17.4615495159
 O         6.3046990589        4.9112677410      -17.2155273875
 C         6.6598128705        6.8190477424      -18.6530436068
 C         7.9871778134        7.1050041368      -19.4858557848
 O         8.6518362081        8.0654591359      -19.0312577350
 C         8.4896616421        6.5763924012      -20.7816092551
 C        10.0295655021        6.1874911010      -20.6687687970
 C        10.1397024983        4.8737442261      -19.8636544166
 O        10.1327095123        4.7914261569      -18.6446264000
 C        10.0958857699        3.4672643957      -20.6944188623
 C         9.1297187935        2.3608228562      -19.9953766155
 O         7.9374377587        2.4049358330      -20.2969681086
 C         9.5705437048        1.6891313158      -18.7091708561
 C         8.5466915953        0.5733968443      -18.4164006547
 C         7.2786837901        1.0821954683      -17.6643269636
 O         7.4631944241        1.7915188904      -16.6969791445
 C         5.8750351160        0.4968051486      -17.9683387024
 C         4.8595646474        1.6820342952      -18.0259577880
 O         4.6458589428        2.3070940437      -17.0059691132
 C         4.5471181859        2.3600919281      -19.3323858914
 C         5.7328527379       -0.4802983289      -19.1637622608
 C         5.4914949691       -0.2642207201      -16.6453182634
 C         9.7275347884        3.5798144385      -22.1580133471
 C        11.5839584835        2.9386375400      -20.6462865578
 C         5.6050167812        6.0869409903      -19.5870582064
 C         6.0540725281        8.0892745394      -18.1192740642
 C         6.0022362970        7.5369593618      -12.0585897264
 C         7.8723940008        5.7721494486      -11.9694293599
 C         4.8540918175        1.4890883236      -10.1176563154
 C         6.2836883008        0.2882066037      -11.7038264448
 C         1.6148069734       -5.0066651693      -11.5602588588
 C         1.3093038200       -5.3073548067      -13.9880780952
 C        -5.2163221502       -3.9703598039      -12.0035710492
 C        -5.6979644574       -2.3374192059      -10.2122853649
 C        -7.1167099772       -4.9667089756       -5.7577909557
 C        -5.9149911083       -5.5608117558       -3.5333732311
 C        -8.8722884843      -11.4686809463       -2.3708319407
 C       -10.0571485792      -10.0087902856       -4.2310488831
 C       -14.5355097729       -6.6596523194        0.9625730551
 C       -15.6742319910       -8.2248510696       -0.7692492138
 C       -15.3398772654       -2.0535603968       -5.0494680251
 C       -16.7212892574       -0.6559894986       -3.5195740592
 C       -19.8480888069       -6.2164085459       -4.9364896854
 C       -22.1654056267       -5.6862141784       -5.5667278965
 H       -22.8490238812       -6.8904069045       -2.5497784851
 H       -23.4931446271       -5.4028891093       -3.3224716757
 H       -23.0515203563       -5.6061073212       -1.5812743999
 H       -20.9369188014       -2.4913469378       -6.1074121769
 H       -19.7643642077       -3.7819588611       -6.3538321320
 H       -19.2604468235       -1.1550771532       -4.8930434512
 H       -18.3191789091       -1.8559958954       -6.2210246427
 H       -14.1437562854       -2.7495073360       -1.9392001935
 H       -14.3449988363       -4.1031029406       -2.9637490162
 H       -15.6312576320       -3.9408386390       -0.3123148447
 H       -13.8964852635       -4.5106781066       -0.3820936486
 H       -13.2490124460       -9.3244411727       -1.5365235957
 H       -12.5980679975       -8.7569524265       -0.0415566338
 H       -10.7977166218       -7.4273853947       -1.7995840153
 H       -11.5042712173       -8.3971241192       -3.0574929815
 H        -6.9892817541      -10.2657683242       -4.7650357069
 H        -6.2390064524      -10.4849105293       -3.1797935039
 H        -4.6869948524       -8.7080190193       -4.4617937765
 H        -5.7625528767       -7.9576183015       -3.2299874878
 H        -5.4542003815       -6.8495876910       -7.6184083226
 H        -3.8803224579       -6.3162555916       -7.7196451627
 H        -4.6205015636       -3.8239854369       -7.8845335957
 H        -6.3345171028       -4.5308871676       -8.0280829985
 H        -2.7706826361       -2.6239715717      -12.4132059318
 H        -2.7481895577       -4.4710003698      -12.2469771534
 H        -0.6806181794       -4.6378362229      -11.3613972049
 H        -0.6271343140       -2.9381515886      -10.9401681655
 H         3.1597795409       -2.9548869798      -11.1850714786
 H         1.8870508152       -1.7908018793      -11.7142651605
 H         3.6810239197       -1.1906646163      -13.5475672419
 H         4.8556675679       -1.5409095087      -12.2419556190
 H         3.0416997548        3.2677699220      -11.4429014290
 H         3.3213252109        3.8667023698      -12.9862425358
 H         5.6616119784        4.5121776721      -10.9335492080
 H         4.1115552400        5.2994562170      -11.2380802147
 H         7.6166101583        4.8576209428      -15.2409279062
 H         9.0125900208        5.7945451013      -14.6706449659
 H         9.0553392529        5.7260735788      -17.1832890892
 H         8.2446748036        7.3784985202      -16.8786057405
 H         8.3823590892        7.3518005048      -21.6219534651
 H         7.8378148017        5.7298652144      -21.0124538830
 H        10.4689361789        7.0658597829      -20.1895910033
 H        10.4194685613        6.0841721788      -21.7129132709
 H         9.4848881131        2.4337796166      -17.8472438457
 H        10.6152125593        1.2008255406      -18.8394906747
 H         8.8357735502       -0.3385435214      -17.8767161873
 H         8.2252219317        0.0874974775      -19.3272993377
 H         3.6890757801        1.8277864948      -19.7434303746
 H         5.4518599807        2.1091161983      -19.9705207663
 H         4.3748741971        3.4803655819      -19.3259475152
 H         4.7048710176       -0.8916754510      -19.3487538502
 H         6.4674532507       -1.2630864761      -18.9090148217
 H         6.0048420536       -0.1725645523      -20.1543988657
 H         4.9997760272        0.5340445077      -15.9781606071
 H         6.3427091629       -0.7658255553      -16.1310231289
 H         4.7430053774       -1.0418470516      -16.7258821779
 H        10.0255156342        2.7031990788      -22.6213594724
 H        10.2515606447        4.3909372311      -22.6809441847
 H         8.7244625512        3.7706203241      -22.3643165102
 H        11.4722739700        1.8950192094      -20.7435077676
 H        12.0650259345        3.0891928321      -19.7020857988
 H        12.1458194563        3.2607617276      -21.4902538111
 H         4.6582544458        6.1393856000      -19.0038013500
 H         5.9799310736        5.1020565535      -19.9390611328
 H         5.4923285890        6.7434517697      -20.4292966831
 H         6.6891827490        8.8520293431      -17.6743031519
 H         5.2579485540        7.7849479723      -17.4484560994
 H         5.4840116486        8.5641173342      -18.9573444526
 H         6.7660105994        8.0346340281      -11.4664477055
 H         5.3415248503        7.2482264279      -11.2595048103
 H         5.6105007738        8.3612622637      -12.6691930686
 H         7.5577473424        5.4134590162      -10.9554983671
 H         8.6456917110        6.5181632410      -11.9645509572
 H         8.2040865595        4.8175566199      -12.4206370039
 H         5.7166459725        2.1964635982       -9.9364522081
 H         5.0005971259        0.6299833253       -9.4440958290
 H         3.9228376695        1.9953628661       -9.7693144290
 H         6.3352393159       -0.4758164478      -10.9805336746
 H         7.0646159596        1.1110003519      -11.6179985202
 H         6.1573686094       -0.0414269020      -12.7329099767
 H         1.2662372501       -4.3514909997      -10.7415578498
 H         2.6579210692       -5.2298468825      -11.4274623204
 H         1.0050408837       -5.9406176983      -11.5612951191
 H         0.2977349184       -5.7151147495      -14.0497919512
 H         1.9295099987       -6.1281715100      -13.7006558862
 H         1.6030966335       -4.9261759498      -14.9249734142
 H        -6.3048424076       -3.7667560020      -12.1516311264
 H        -4.9896845000       -4.9193287157      -12.4494506691
 H        -4.8394474169       -3.1066788096      -12.6366208115
 H        -5.4559028589       -1.5466940589      -10.9197691380
 H        -5.4078113476       -1.9759478412       -9.1984928226
 H        -6.7852165197       -2.5089180973      -10.1878207799
 H        -7.4842667174       -5.4267916930       -6.6082954173
 H        -6.7863151948       -3.9588538801       -5.9659217785
 H        -7.9272020044       -4.7992095856       -5.0694563821
 H        -6.8858268696       -5.6357866037       -3.0608512606
 H        -5.6400656921       -4.5398451070       -3.5882898352
 H        -5.1416369035       -6.1254115172       -2.9727357274
 H        -9.7331466441      -11.9905296473       -2.0506130419
 H        -8.2863344107      -11.4051257410       -1.4410694134
 H        -8.3580616631      -12.1864074773       -3.0736748978
 H       -11.1117490569      -10.3473327004       -3.9810287342
 H        -9.7604245515      -10.8077862538       -4.9041148075
 H       -10.0954553757       -9.1392474695       -4.8534829352
 H       -15.3238098925       -7.0680241825        1.6222567575
 H       -14.4726210697       -5.6536935550        1.0179443737
 H       -13.6236066422       -7.1752627452        1.3024317160
 H       -15.8435083047       -8.4821621856       -1.7735746618
 H       -16.5734672843       -7.9671702466       -0.2318646379
 H       -15.3113833320       -9.1969133435       -0.3072334675
 H       -15.2596834670       -3.0457480908       -5.5211821401
 H       -14.3417526238       -1.8966454043       -4.5534222671
 H       -15.6313403970       -1.2495497330       -5.7040552681
 H       -17.5965943389       -0.5322605109       -2.9707948224
 H       -16.8157136112        0.0956574250       -4.3569811072
 H       -15.8349618700       -0.2933635266       -2.8183841181
 H       -19.1786976597       -6.3693474921       -4.1823834501
 H       -19.3168702281       -5.9665912045       -5.8304606170
 H       -20.2522189408       -7.2751861694       -5.0605496186
 H       -21.7850811117       -5.4145621826       -6.6082834813
 H       -23.1331871598       -5.1973645345       -5.4346346610
 H       -22.4338178452       -6.7375234170       -5.5773323074
 Na      -18.3105073899       -4.8155951730       -2.5333640970
 Na        5.9560886464        3.2815669291      -15.4848274011
