232

 C         2.9582490593        5.8051779154      -27.4827321117
 C         3.4270169914        5.9954689711      -26.0795719193
 O         3.5205026872        7.0256931490      -25.5228371599
 C         3.7007361925        4.6552497234      -25.2057693715
 C         4.6260497612        5.1406599803      -23.9553292401
 O         4.1503229110        5.0817794615      -22.8412305095
 C         6.0416033658        5.6797292597      -24.1335337012
 C         6.8566473523        5.5054806218      -22.8716281066
 C         7.2813418246        3.8887570229      -22.8318741018
 O         7.2982835506        3.0342539966      -23.6856394017
 C         7.8750478429        3.2413725468      -21.2698701806
 C         6.6652414119        2.3862979810      -20.8537581680
 O         5.7452549302        2.8531422372      -20.3163795411
 C         6.8390607400        0.7856337183      -21.1564491292
 C         5.5666567128        0.0551265478      -20.5632609793
 C         4.3089891792        0.6450522133      -21.2090932773
 O         4.2917907755        1.2030067570      -22.2917166151
 C         2.9439458977        0.2657536805      -20.4642842946
 C         2.5163925734        1.3891800773      -19.4783506549
 O         2.2337580977        2.4878755784      -20.0305833152
 C         2.4999163927        1.2311936801      -17.9571486461
 C         1.1169239630        1.6974675990      -17.2680064944
 C        -0.0908189211        1.3979706323      -18.1910439818
 O         0.1063074276        0.8023198193      -19.2168063882
 C        -1.4732753657        1.9251573520      -17.6165552108
 C        -1.7397091047        1.5262712875      -16.1364313998
 O        -1.1564453729        2.0784033844      -15.2394829460
 C        -2.6282346704        0.2327551967      -15.9299004761
 C        -2.6550000568       -0.0912759898      -14.4664855272
 C        -2.1037878752       -1.5001107623      -14.1822524665
 O        -1.5783363540       -2.1172000271      -15.0941203508
 C        -2.2095683064       -2.1848554908      -12.7008324146
 C        -3.6171628331       -2.0549501465      -12.2421714502
 O        -4.3703611003       -1.2110368742      -12.6910982961
 C        -4.0518408919       -3.2176639848      -11.1364333042
 C        -5.3052511885       -2.7709519380      -10.4407963478
 C        -5.4499758404       -3.5779265398       -9.0634179238
 O        -4.7614813729       -4.5140707766       -8.8150723497
 C        -6.5010116224       -3.0489159661       -7.8641766673
 C        -6.5348217337       -4.0175019032       -6.6112067599
 O        -6.1224574563       -3.6309760570       -5.5328598970
 C        -6.5785011439       -5.5480541121       -6.9199884181
 C        -7.4846081635       -6.2303865242       -5.8756549658
 C        -8.8202278953       -5.4593374190       -5.7465693113
 O        -9.0157033621       -4.4415689179       -6.2932979550
 C        -9.9071914945       -6.2749016246       -4.8848183314
 C        -9.5312208777       -6.1235836952       -3.3432500993
 O        -8.5628248911       -5.5128238298       -2.9807931708
 C       -10.4734622541       -6.7604669852       -2.3806774192
 C        -9.7221599223       -7.2326758721       -1.0772612478
 C        -9.0942439616       -8.6387766653       -1.1575906665
 O        -9.0363935603       -9.2481283386       -2.1981416387
 C        -8.4938029553       -9.0535311232        0.2209247459
 C        -7.1906812708       -8.3124518349        0.5214463333
 O        -7.2143200554       -7.4192283702        1.3806386597
 C        -5.9078293278       -8.4825115141       -0.3176517660
 C        -4.8628931896       -7.3499473521       -0.0494179640
 C        -4.7009833107       -6.4385379597       -1.2571565234
 O        -5.8051941701       -5.9674894924       -1.6726857973
 C        -3.3649471727       -6.2131188912       -2.0117567035
 C        -3.3009795883       -4.7098920578       -2.5330965480
 O        -4.0724478868       -4.3089236136       -3.3704811668
 C        -2.2087529027       -3.8173713870       -1.9311306112
 C        -2.5178901135       -2.3432465480       -2.2230204434
 C        -2.5057275975       -1.4277186962       -1.0116533283
 O        -2.5588235177       -1.9222154397        0.0924951444
 C        -2.4202341046        0.1517611140       -1.1867906437
 C        -3.9306458356        0.7007657498       -1.3368407636
 O        -4.2570387423        1.4260352619       -2.2541465761
 C        -5.0151056277        0.3622103102       -0.0583949573
 C        -6.4654696999        0.1066460942       -0.6136918062
 C        -6.8298391715       -1.2042056565       -1.2243742752
 O        -6.0242865696       -1.8780034947       -1.7652241422
 C        -8.4080421724       -1.6521980922       -1.2306353869
 C        -8.9378160793       -1.6380487169       -2.6707928043
 O        -8.5743506102       -2.5034611351       -3.4632723812
 C        -9.8156506727       -0.3933879893       -3.2060999169
 C       -10.5535513875       -0.4900061154       -4.5484767338
 C       -10.8288129965        0.8851530269       -5.1925798539
 O        -9.9946942507        1.7005321993       -4.9126016231
 C       -12.0993232260        1.1362766304       -5.9546728053
 C       -12.4038663294       -0.0931584083       -6.9013716570
 O       -11.5770508389       -0.9656823478       -7.1244780031
 C       -13.6053625027       -0.0631528707       -7.7522328299
 C       -13.2925606238        1.0315695121       -4.9373989107
 C       -12.0401056658        2.4709479855       -6.7546299051
 C        -8.4583585350       -3.0498135966       -0.5807157605
 C        -9.1131129522       -0.6473273625       -0.3168256261
 C        -1.7355212999        0.6920694988        0.1199203855
 C        -1.6656765538        0.7263168461       -2.4607613936
 C        -2.1927751269       -6.6100463067       -1.0517511889
 C        -3.5682850122       -7.0731181910       -3.2262010892
 C        -9.3519948611       -8.6914665080        1.4003266391
 C        -8.2029313442      -10.5384621685        0.0749425863
 C       -11.1974371538       -5.6187487822       -5.3038531866
 C       -10.0246567702       -7.7901470589       -5.2406205952
 C        -6.1343096389       -1.6730456708       -7.2890408386
 C        -7.9347633097       -2.8344423977       -8.5562829141
 C        -1.6429953306       -3.5859462613      -12.7735761370
 C        -1.3488782539       -1.3153511172      -11.7933007554
 C        -1.4210759288        3.5518686927      -17.6817501036
 C        -2.5661155111        1.5348371770      -18.5977870913
 C         1.8890023430        0.1938553257      -21.5255782120
 C         3.2594631677       -1.0318082300      -19.7505506934
 C         9.0959391466        2.3845631897      -21.6198065202
 C         8.1179228384        4.4549388789      -20.2861145293
 C         2.4382982832        3.9219595752      -24.6256289691
 C         4.4589073966        3.5480256087      -25.9986896911
 H         2.0461698446        5.2634689546      -27.4644770945
 H         3.6052624130        5.1765911762      -28.1381913788
 H         2.7891868319        6.7591604245      -27.9530730247
 H         5.8248816251        6.8165795501      -24.3333674780
 H         6.4827185759        5.3358131435      -25.0656619576
 H         6.1352262545        5.7041395714      -22.0593309934
 H         7.8056346833        6.0456913085      -22.8605869830
 H         7.6617650094        0.3935573506      -20.7092564486
 H         6.9992540554        0.7548914596      -22.2306898031
 H         5.6243878140        0.4502684893      -19.4792577293
 H         5.5851035752       -0.9423452771      -20.5208568391
 H         3.1447077804        1.9525750260      -17.5745180908
 H         2.7384821357        0.2316650298      -17.6399145809
 H         1.0963059291        2.7251000560      -16.9995390497
 H         0.9291890254        1.1334807630      -16.3776701230
 H        -2.1402879639       -0.5690869613      -16.5364261810
 H        -3.5691829918        0.4754928129      -16.3878482356
 H        -3.6692713414       -0.0626646602      -14.1263020878
 H        -2.1577068238        0.7661447815      -13.9366678167
 H        -3.2186366781       -3.2211096337      -10.4116007089
 H        -3.8901510217       -4.1511254489      -11.5473134731
 H        -6.1873939318       -2.9680187634      -11.0233525542
 H        -5.2084677266       -1.7238234700      -10.2361501774
 H        -5.5762241473       -5.9381287281       -6.8902567528
 H        -7.0406704452       -5.6609091524       -7.9166161949
 H        -7.0650395080       -6.3405602056       -4.8980155177
 H        -7.7231629611       -7.2204249736       -6.1862724253
 H       -11.1942062973       -7.4894841746       -2.7429498285
 H       -11.1611713834       -5.9165521262       -2.0674902336
 H       -10.5091876754       -7.2330833417       -0.3068517351
 H        -8.9742054232       -6.4152053059       -0.7279431275
 H        -6.0450120293       -8.4993205778       -1.4507638265
 H        -5.4838424955       -9.4761849221       -0.0216173598
 H        -4.0473068965       -7.7094049012        0.4956511813
 H        -5.5492483063       -6.7284119848        0.6693829820
 H        -1.2204348865       -4.1345728794       -2.3761004355
 H        -2.2751743072       -4.0174180986       -0.8631035764
 H        -3.3966515130       -2.3372949295       -2.9251897779
 H        -1.6114938773       -1.9532139708       -2.8632448505
 H        -5.0176700210        1.2275938831        0.5772730690
 H        -4.5278997592       -0.4189955583        0.5107878143
 H        -6.5234701301        0.8621035921       -1.3899325413
 H        -7.1709120573        0.4105174941        0.1681343058
 H        -9.2021669886        0.5505300382       -3.2752582680
 H       -10.3831593403       -0.1475161784       -2.3674597239
 H       -11.4754137252       -1.1522317120       -4.4064548042
 H        -9.9576106354       -1.1749286387       -5.2460266531
 H       -14.5312080071        0.2917404490       -7.2401732429
 H       -13.8057296252       -1.0365373563       -8.1751894624
 H       -13.5492258150        0.6396438538       -8.5257844501
 H       -13.6351839571       -0.0443599563       -4.8960367234
 H       -14.0233283863        1.6916626214       -5.2266147733
 H       -12.8958203799        1.3266771228       -4.0148742674
 H       -11.2722632760        2.5765232890       -7.5141295076
 H       -12.1621566898        3.2013756872       -5.9344490836
 H       -12.9933165452        2.5955256744       -7.3010692704
 H        -9.5172318667       -3.2853827099       -0.5782398960
 H        -8.0405887123       -3.0251872528        0.4031656258
 H        -7.9263125267       -3.8124179969       -1.1631976715
 H       -10.1884764022       -0.6549299371       -0.3809826603
 H        -8.8068022980        0.3640667726       -0.6037283457
 H        -8.9180467634       -0.8175666699        0.6801208443
 H        -1.7375242289        1.7694092322        0.0798093041
 H        -0.6936599302        0.3792018700        0.0709550229
 H        -2.0820158201        0.4525534455        1.1768310752
 H        -2.1209640658        1.6696363130       -2.6812731049
 H        -1.7151400851        0.0929077315       -3.3716538778
 H        -0.6421796677        0.8849439434       -2.2751337668
 H        -2.1092360307       -7.6549949543       -0.7837408495
 H        -2.1868970813       -6.1160953803       -0.0902527272
 H        -1.1835844425       -6.5224519925       -1.5425276833
 H        -3.4809309756       -8.1177057224       -2.9566441944
 H        -2.8322046622       -6.8559084665       -3.9884583080
 H        -4.5813750575       -6.8736012203       -3.7134136785
 H        -9.4787079214       -7.5810048418        1.3906540801
 H        -8.8588847130       -8.9940578154        2.3453199328
 H       -10.3941033915       -8.9721301678        1.2546812486
 H        -7.3901113116      -10.7273314248       -0.5845592638
 H        -9.0345122687      -11.0821514232       -0.3575043512
 H        -7.9702221307      -11.1958479174        0.9186015605
 H       -11.9905651381       -5.9632497457       -4.6616080805
 H       -11.3194512119       -5.8736136874       -6.3506950186
 H       -11.0438569825       -4.5601525223       -5.1997258656
 H       -10.2054277311       -8.0138942792       -6.3184800605
 H       -10.9413321745       -8.2281904800       -4.7172775337
 H        -9.2150567948       -8.4059661978       -4.8422191361
 H        -7.0852794923       -1.3107988879       -6.8448481971
 H        -5.8412851603       -0.9478990993       -8.1093535871
 H        -5.3331374508       -1.8730152815       -6.5600689675
 H        -8.1795675639       -3.8354562980       -8.9046841746
 H        -7.8041340357       -2.1480233623       -9.3443980189
 H        -8.6905907014       -2.5297301627       -7.7949081822
 H        -1.6416686341       -4.1639348072      -11.9461957174
 H        -0.4910811258       -3.4844677380      -12.9328671553
 H        -2.0994793818       -4.3174074761      -13.4424521160
 H        -2.0591029668       -0.4834923818      -11.4799954242
 H        -0.4901662282       -1.0445473715      -12.3206999222
 H        -1.1458531674       -1.8666447150      -10.8380444653
 H        -0.6557552654        3.7638558782      -16.8496906268
 H        -2.3716261825        3.9165790554      -17.3923056848
 H        -1.1799505240        3.8168746917      -18.6655597811
 H        -2.4928501564        0.5355815662      -18.9421259108
 H        -2.5338564510        2.1471945231      -19.5005204651
 H        -3.5850608158        1.6664720379      -18.2263470546
 H         2.3942670797       -0.3650849000      -22.3068587386
 H         1.6894470158        1.1835523003      -21.9975090047
 H         0.9602027609       -0.3428228016      -21.1884707599
 H         3.6966380395       -1.7527135573      -20.4207261232
 H         2.3469801669       -1.5471755393      -19.4335488183
 H         3.8757162675       -1.1999835884      -18.8958112722
 H         9.9325191567        2.9188346592      -21.2381371446
 H         9.1214972627        2.3711898555      -22.7176382394
 H         9.1848395263        1.4241940316      -21.2592708656
 H         8.6353023349        5.2439118599      -20.7872665543
 H         8.6485181796        4.0085098799      -19.4719932461
 H         7.1500397821        4.8060305676      -20.0686983194
 H         1.4705856118        4.0160544386      -25.1718747601
 H         2.3458554447        4.4501412489      -23.6275660192
 H         2.5375964270        2.8916132899      -24.4345941986
 H         5.3827020584        4.0028285058      -26.4711405761
 H         3.7481379382        3.1332995947      -26.7818264210
 H         4.7074384695        2.7255201852      -25.4128320538
 Na       -6.4887092115       -3.9998053956       -3.3909357646
 Na        3.7448841276        3.3231163319      -21.5451611392
