232

 C         2.9088249896        5.7394804416      -27.4297204027
 C         3.2942943039        5.9555254281      -25.9772979217
 O         3.4241275525        7.0481442638      -25.4630643136
 C         3.7483532605        4.6968608697      -25.1323752455
 C         4.6632323360        5.1457939474      -24.0088287099
 O         4.1610244559        5.0834624986      -22.8643592751
 C         6.0791366886        5.6227505067      -24.1404571868
 C         6.9507292033        5.3305371031      -22.8125353245
 C         7.3777433827        3.9334451212      -22.7726753196
 O         7.3502363993        3.2632646375      -23.7569065890
 C         7.8751032018        3.2861432392      -21.4297830058
 C         6.6648012104        2.3420980112      -20.9298243860
 O         5.6983837776        2.8437684821      -20.3876793361
 C         6.7614940926        0.8922551789      -21.0755064416
 C         5.5926836311        0.1313257223      -20.4389939413
 C         4.3422717102        0.5320172268      -21.0911381355
 O         4.3469747008        1.1304158656      -22.1642640998
 C         2.9791935295        0.1331078047      -20.4470035846
 C         2.5336833540        1.4141006004      -19.4745458347
 O         2.3328192830        2.4920884525      -19.9878045147
 C         2.3562250038        1.1737275790      -17.9297576149
 C         1.0693661804        1.7472670266      -17.2657256264
 C        -0.1959512391        1.5096508836      -18.1506258565
 O        -0.1442297278        0.8957829424      -19.1900795725
 C        -1.5297097709        2.0185861099      -17.7311634767
 C        -1.6953277445        1.4992582699      -16.2599140077
 O        -1.0567037407        1.9947063664      -15.3854575383
 C        -2.6345125929        0.3348436953      -15.9118770138
 C        -2.6280220623       -0.0371109855      -14.4366101853
 C        -2.1403171440       -1.4852948043      -14.2563596382
 O        -1.4587951437       -2.0365674567      -15.0955466707
 C        -2.2527403472       -2.0952181289      -12.8454376614
 C        -3.7253916234       -2.1464749156      -12.3740369284
 O        -4.5991419736       -1.3924721198      -12.5943170579
 C        -4.1356203515       -3.2354933497      -11.2833230764
 C        -5.3478640449       -2.7796218921      -10.3412760215
 C        -5.4583300476       -3.4951740339       -9.0248045261
 O        -4.8424251406       -4.4827789931       -8.7795781642
 C        -6.4537251259       -2.9927002097       -7.8816487718
 C        -6.3841492726       -4.0701665933       -6.7729213356
 O        -6.1452543470       -3.7169619818       -5.6066754437
 C        -6.5568419701       -5.6274480647       -6.9820523210
 C        -7.4103169248       -6.3287241643       -5.9800155128
 C        -8.7546528890       -5.6223803621       -5.7387676449
 O        -8.9339640107       -4.5075844689       -6.2159313507
 C        -9.9076374710       -6.2218667867       -4.8976632647
 C        -9.4976246207       -6.0846476076       -3.3641014015
 O        -8.4608209692       -5.4997743065       -3.0303288781
 C       -10.4578302266       -6.7093008620       -2.3086728315
 C        -9.7731589063       -7.1499304410       -1.0087510036
 C        -9.1110667779       -8.5233215780       -1.1240915530
 O        -9.0645686068       -9.2162822639       -2.0821671833
 C        -8.5148725141       -9.0568867537        0.2423981843
 C        -7.1378587088       -8.2324399095        0.4745561008
 O        -7.1259336042       -7.3026509502        1.2181745129
 C        -5.9209172184       -8.5777348431       -0.3040227515
 C        -4.8756223871       -7.5136667877       -0.1030405646
 C        -4.8539948250       -6.3599321868       -1.1943878745
 O        -5.8253320736       -5.7571951645       -1.6139251241
 C        -3.4060285096       -6.2128355483       -1.9668116250
 C        -3.2852414779       -4.7604477793       -2.4585643791
 O        -3.9877757472       -4.3272653372       -3.2966827974
 C        -2.2871042651       -3.7666708585       -1.8122154007
 C        -2.4393029825       -2.2877738478       -2.4075942552
 C        -2.4782830080       -1.4007561361       -1.1776029844
 O        -2.6588863812       -1.8557947949       -0.0776956566
 C        -2.5127861958        0.1400450761       -1.2710180857
 C        -3.9103917951        0.5981634093       -1.2976441699
 O        -4.3485756070        1.2937111438       -2.1983426838
 C        -4.9175557611        0.3978108309       -0.1872698371
 C        -6.3853273100        0.1146986023       -0.5457236858
 C        -6.7689484544       -1.2644639296       -1.2343876076
 O        -5.9705513607       -1.9774917266       -1.8334173011
 C        -8.3205240552       -1.6444677390       -1.1585508729
 C        -8.8990689143       -1.6092277177       -2.6978965303
 O        -8.6500660131       -2.4707550251       -3.4529050079
 C        -9.7619846602       -0.4443208081       -3.2010311725
 C       -10.4166056677       -0.6636360430       -4.4890134340
 C       -10.7789601370        0.7823617174       -5.1259939603
 O        -9.9894617630        1.6536338937       -4.9796058138
 C       -12.1090478071        1.0548303041       -5.9043548080
 C       -12.3537306951       -0.0446580515       -7.0560576073
 O       -11.5451303318       -0.9546897028       -6.9665301064
 C       -13.6249380004       -0.0192081284       -7.9069720860
 C       -13.2993456816        0.9640023859       -4.8546574637
 C       -11.9403019545        2.4596919146       -6.5872776597
 C        -8.3073676128       -3.1396956097       -0.5403228764
 C        -9.2467157108       -0.7799996372       -0.1866853189
 C        -1.8257242210        0.7425337095       -0.0644276694
 C        -1.7482690582        0.7089283563       -2.5055007719
 C        -2.1506205433       -6.5213742566       -1.1267639858
 C        -3.4572093477       -7.1076760656       -3.2321445930
 C        -9.5065737013       -8.9446892118        1.5163506549
 C        -8.1146347525      -10.6330338241        0.0924948347
 C       -11.2542329097       -5.4543794696       -5.2274901294
 C       -10.0597507935       -7.7099496194       -5.2198729445
 C        -6.1081303762       -1.5203618046       -7.2481884019
 C        -7.9522784176       -2.8055286302       -8.3861716270
 C        -1.6250469594       -3.4935177901      -12.8799348628
 C        -1.4647556634       -1.1292580044      -11.8441281404
 C        -1.5449606007        3.6081574181      -17.5950916787
 C        -2.5513471752        1.4673032677      -18.7534485209
 C         1.8782001360        0.1491474057      -21.4634789826
 C         3.2057613499       -1.2050092137      -19.7099233072
 C         9.1387871472        2.4725660258      -21.6208893427
 C         8.1612122337        4.3896501972      -20.2812733292
 C         2.4270713531        4.0108891344      -24.5851153286
 C         4.4614658667        3.6800356813      -26.1918914176
 H         2.0821218094        5.0054964743      -27.6783891507
 H         3.7186175079        5.5052928132      -28.0731337123
 H         2.5661183269        6.7375060796      -27.7303522724
 H         5.9424076186        6.7764842997      -24.1519009833
 H         6.4969174171        5.3844667498      -25.1468698199
 H         6.3837537527        5.6474464719      -21.9497240228
 H         7.9913985913        5.7848929448      -22.9069857988
 H         7.7449591343        0.4369721915      -20.7595327638
 H         6.7687732220        0.8446487766      -22.1720110157
 H         5.6346179232        0.2868255486      -19.4106054202
 H         5.7290817693       -0.9829082042      -20.6462173524
 H         3.1339783884        1.6759132348      -17.3781106983
 H         2.3016586125        0.1276597259      -17.6863910288
 H         1.0613672307        2.7759637420      -17.0548194994
 H         0.9928569245        1.1841068421      -16.2925756315
 H        -2.2236566279       -0.4563497566      -16.4980829723
 H        -3.5968537718        0.6424646096      -16.3877338999
 H        -3.5997236867        0.2045068927      -13.8666901754
 H        -1.8744404250        0.6634251091      -13.9973005904
 H        -3.1671321537       -3.5641555742      -10.7586658010
 H        -4.2477726543       -4.1437519160      -11.8416786152
 H        -6.2436400182       -3.1562210802      -10.7561872675
 H        -5.4212152932       -1.7030305005      -10.2779489555
 H        -5.5582819225       -6.0134911799       -6.8273899529
 H        -6.9395188258       -5.8564124891       -7.9541953929
 H        -6.8897757426       -6.3880547946       -4.9447959659
 H        -7.5438569535       -7.3865255035       -6.2996426171
 H       -11.0710459583       -7.5265475103       -2.6760171318
 H       -11.2566413113       -5.9613743829       -2.0736422136
 H       -10.4883222302       -7.0174004083       -0.1328095746
 H        -8.9180245500       -6.4291913873       -0.7897400159
 H        -6.1499124714       -8.6166644818       -1.3776912616
 H        -5.5248040603       -9.5699469238       -0.0116680890
 H        -3.9407859559       -8.0544577531        0.0025750327
 H        -5.1477497880       -7.0773463662        0.8902730911
 H        -1.2140557969       -4.1639790705       -1.8280692656
 H        -2.6871493585       -3.6657752046       -0.7555103148
 H        -3.3911054274       -2.2334982260       -2.9156516200
 H        -1.6654279359       -1.9842533134       -3.1354855906
 H        -4.8275527082        1.2311057924        0.5309139454
 H        -4.4485645453       -0.4418558786        0.3046945730
 H        -6.7723480155        0.9998795543       -1.0584468303
 H        -6.9261880131        0.0949472037        0.4523834752
 H        -8.9845684303        0.3063871244       -3.3577517722
 H       -10.2847945789        0.0633001945       -2.4066453256
 H       -11.3446262591       -1.2918544398       -4.1783360071
 H        -9.9030656556       -1.3871568003       -5.1370171822
 H       -14.3774490220        0.3507610343       -7.3071813910
 H       -13.9123116137       -1.0377972326       -8.2716018933
 H       -13.7201337635        0.6562362802       -8.7072790374
 H       -13.5607804318       -0.0258361025       -4.7546276926
 H       -14.0978150689        1.5793490345       -5.2598704210
 H       -12.9298294579        1.3777341256       -3.9361977489
 H       -11.0298977391        2.5118037162       -7.1424744809
 H       -12.0982604008        3.1649414821       -5.7291488138
 H       -12.7418594131        2.7191774352       -7.3152489448
 H        -9.3058150908       -3.3128213382       -0.2735966459
 H        -7.6962189919       -3.1497151642        0.3111155735
 H        -8.0209435400       -3.8850966683       -1.2025499132
 H       -10.2202138099       -1.3336726470       -0.0937099083
 H        -9.4815196011        0.2425426011       -0.5807663603
 H        -8.9090123175       -0.7488603859        0.8456131496
 H        -2.0578536376        1.8355469458        0.1237707838
 H        -0.7560394297        0.6428841948       -0.2530734903
 H        -1.9827997154        0.2238039264        0.9177432885
 H        -2.1674439934        1.6744882560       -2.6724172656
 H        -1.7343414612        0.1890283642       -3.4373796978
 H        -0.6862578253        0.9281000754       -2.2544466326
 H        -2.0423008154       -7.5620337726       -0.9613944848
 H        -2.1512312622       -6.1798308406       -0.0310403597
 H        -1.1814604751       -6.3704849138       -1.6366925078
 H        -3.2749349941       -8.1464916425       -2.9015077946
 H        -2.6340941137       -6.8330352280       -3.9773438885
 H        -4.4172782479       -7.0582979839       -3.7604003930
 H        -9.9951164616       -7.9446082499        1.5408408806
 H        -8.9462669844       -9.0801003497        2.4911335761
 H       -10.3587718222       -9.5612442441        1.3641526160
 H        -7.3606690727      -10.7941103191       -0.6481570581
 H        -8.9448377559      -11.2068920271       -0.2632900651
 H        -7.7691507633      -11.2464858194        0.8783967649
 H       -11.8513068586       -5.4693611907       -4.3106322102
 H       -11.7788184676       -5.9735463838       -6.0507320371
 H       -11.0096622668       -4.4422130512       -5.4807616113
 H       -10.2326799535       -7.8340345165       -6.2945833995
 H       -10.9013425538       -8.1523026464       -4.7676889123
 H        -9.2497880064       -8.2847809767       -4.9624150005
 H        -6.9590383603       -1.1696163555       -6.6363053381
 H        -6.0619422078       -0.8405782705       -8.1088932983
 H        -5.1672215186       -1.6165776578       -6.8066373258
 H        -8.2785062253       -3.8553518496       -8.5477630044
 H        -7.9858801173       -2.1432893319       -9.2755964775
 H        -8.5432655884       -2.4725987261       -7.5145472126
 H        -1.6065501941       -4.0163876245      -11.8887248003
 H        -0.6183342221       -3.4947252148      -13.1254657563
 H        -2.1350532577       -4.2386635804      -13.3814903608
 H        -1.9790772423       -0.1984606938      -11.6641618973
 H        -0.4854145806       -1.0471172891      -12.3136227902
 H        -1.4067896537       -1.7003854933      -10.8434166620
 H        -0.7843413316        3.7660553165      -16.8665284067
 H        -2.5401396999        3.9515839386      -17.1261806283
 H        -1.3650484938        3.9789845078      -18.6118510413
 H        -2.4383602480        0.4001484489      -18.8647532620
 H        -2.5959393524        1.8914419602      -19.7246330061
 H        -3.5845774259        1.5331741341      -18.3787159954
 H         2.0545776068       -0.7714593951      -22.1025173777
 H         1.8899511463        0.9490720705      -22.1248809733
 H         0.9366897398       -0.0044478238      -20.8685468162
 H         3.5904873863       -2.0713562573      -20.3165645258
 H         2.4013228822       -1.6345882334      -19.1916958810
 H         3.9662829718       -1.2104292623      -18.9286231102
 H         9.9022753004        3.2708616562      -21.6514020172
 H         9.0683928151        1.8796102953      -22.5207265795
 H         9.3980300092        1.8524833738      -20.7999866374
 H         8.9897093955        5.0216120978      -20.7081226633
 H         8.3841938644        3.7768608422      -19.4373713018
 H         7.3566559223        5.0596443701      -20.1927132792
 H         1.8471503783        3.9202976909      -25.4930239523
 H         1.8943625499        4.6359048062      -23.9039726138
 H         2.4412049094        3.0240065447      -24.1549685011
 H         5.4013348877        4.1184174717      -26.6583914580
 H         3.7810651360        3.2471455406      -26.9060233541
 H         4.7450539307        2.8341047490      -25.5860610258
 Na       -6.3676552243       -3.8939919262       -3.3075308536
 Na        3.6961965612        3.3001908163      -21.5960032336
