232

 C         2.8084604764        5.7790236073      -27.3608393878
 C         3.3310168241        6.0108373810      -25.9964885511
 O         3.2896561549        7.0910233862      -25.3891390382
 C         3.7594615847        4.6510437668      -25.1758028939
 C         4.6487648263        4.9984321210      -23.9035553389
 O         4.2006170258        5.0609892423      -22.7547437472
 C         6.0830477652        5.6755396421      -24.1538811956
 C         6.9406215324        5.4779073327      -22.8530609863
 C         7.4374686840        3.9565613783      -22.8464497159
 O         7.4394093311        3.2454188384      -23.8352194775
 C         7.9301267955        3.2927528203      -21.4202912922
 C         6.7200206060        2.3830897100      -20.8974245723
 O         5.6458790778        2.9829435415      -20.4350050371
 C         6.8437671821        0.8477852394      -21.0979861646
 C         5.7289612176        0.1386452985      -20.3741834515
 C         4.3707365585        0.4530652703      -21.0251464628
 O         4.3014254491        1.1015367589      -22.0714677183
 C         2.9420186821        0.1064141972      -20.2868379583
 C         2.5023049203        1.3231397023      -19.4093941004
 O         2.4775028881        2.4561770808      -19.8233472642
 C         2.2748688841        1.0404110328      -17.9693413319
 C         1.1211472268        1.8274971097      -17.4442813025
 C        -0.2112853631        1.6190164421      -18.2405671781
 O        -0.1167439589        0.8894232983      -19.2327587908
 C        -1.6623808336        2.0879738631      -17.6903815726
 C        -1.7683955539        1.5391350565      -16.2956969437
 O        -0.9298042405        1.9496177237      -15.4710244262
 C        -2.7304095172        0.3741401789      -15.9623894480
 C        -2.5872223142       -0.0288871183      -14.5124164211
 C        -2.0321097791       -1.3946687897      -14.2839898064
 O        -1.4418360717       -1.9575375620      -15.1702918618
 C        -2.3110837694       -2.0688801770      -12.8421435596
 C        -3.9656799369       -2.2485440035      -12.2064640281
 O        -4.7633143265       -1.4334949051      -12.6667712580
 C        -4.3104221447       -3.3112270394      -11.1706034489
 C        -5.4385970826       -2.7410812343      -10.3933828023
 C        -5.4921329036       -3.4228574203       -8.9981387155
 O        -4.8017072552       -4.4412003868       -8.7703577701
 C        -6.4413198349       -3.0126228999       -7.8812742112
 C        -6.3296469427       -4.0743029080       -6.7199153530
 O        -6.1606554318       -3.6957444090       -5.5788898116
 C        -6.5415486897       -5.6253203598       -7.1096961436
 C        -7.3340582856       -6.3821541783       -6.0488325256
 C        -8.7382605082       -5.6393887038       -5.7708499578
 O        -8.7930755118       -4.4797884175       -6.2286081342
 C        -9.9082196709       -6.2214475506       -4.8802858193
 C        -9.4809487123       -6.0510299423       -3.4000237080
 O        -8.4170116646       -5.5320766841       -3.0628564644
 C       -10.3858517265       -6.6093076447       -2.3017355125
 C        -9.7590289407       -7.0479009048       -0.9820547973
 C        -9.1666548385       -8.4759827913       -0.9267661123
 O        -9.1072065045       -9.1054106894       -2.0039796850
 C        -8.5061871761       -9.1182696470        0.3056513146
 C        -7.2211407243       -8.1698255191        0.4948155917
 O        -7.2691993056       -7.1725068425        1.1717442492
 C        -5.9313540426       -8.6227611077       -0.3590406020
 C        -4.7835541698       -7.5332991881       -0.3284832909
 C        -4.8020735165       -6.4110087101       -1.2618163566
 O        -5.7194948561       -5.6785819034       -1.4440928466
 C        -3.4032966492       -6.1810354823       -1.9474582019
 C        -3.3544643033       -4.6617353847       -2.4459228744
 O        -4.0881140728       -4.3425294049       -3.4005246107
 C        -2.3276241422       -3.7553602061       -1.7629606754
 C        -2.3216527256       -2.3515450357       -2.3946533688
 C        -2.4665173348       -1.3479090693       -1.2408848746
 O        -2.7832948336       -1.7718143189       -0.1307710382
 C        -2.3935888047        0.2621063349       -1.3471567444
 C        -4.0870591635        0.6349165034       -1.4460853624
 O        -4.5353189471        1.2503857362       -2.3529552337
 C        -4.9011606635        0.1383605497       -0.1305126244
 C        -6.3276683038        0.0038391226       -0.4362219523
 C        -6.8164572606       -1.2084188729       -1.2117628115
 O        -5.9866548431       -1.9269326307       -1.8314814603
 C        -8.3316818400       -1.6783265855       -1.1232745285
 C        -8.7899848422       -1.6758664687       -2.6166540777
 O        -8.5141773705       -2.6066908787       -3.3703465109
 C        -9.6284425473       -0.4059068869       -3.0732711952
 C       -10.4222147195       -0.6342341045       -4.4330687449
 C       -10.7423644397        0.6516985737       -5.0837959956
 O        -9.9079258711        1.5839513183       -5.0115087275
 C       -12.0859529640        0.9719939984       -5.8234221181
 C       -12.3224079693       -0.0975650704       -6.9517036045
 O       -11.6106225928       -1.0600997550       -7.1137262036
 C       -13.4772505055        0.0213381427       -7.8845229876
 C       -13.2771817009        0.9803022142       -4.8614195616
 C       -11.9678366633        2.4380398099       -6.3840053936
 C        -8.2025494731       -3.1272366806       -0.6489304304
 C        -9.1987070191       -0.9328940472       -0.1874003985
 C        -1.8582025887        0.8379358953       -0.0522516305
 C        -1.7761995286        0.6696190393       -2.7296030340
 C        -2.1741298303       -6.5353280927       -1.1322968830
 C        -3.3565118902       -7.1301847772       -3.1895873995
 C        -9.4576731951       -9.2246772680        1.4834117414
 C        -8.0962363643      -10.5809732042        0.1239306856
 C       -11.2473315943       -5.3571880775       -5.0320391406
 C       -10.1125282554       -7.7266654165       -5.2090523995
 C        -5.9612119800       -1.5772603545       -7.3245262674
 C        -7.8970496477       -2.8924896949       -8.3558781200
 C        -1.5952928594       -3.4001615575      -12.9312213811
 C        -1.6243981973       -1.0683780311      -11.8663357659
 C        -1.7230809512        3.6434827793      -17.6111329269
 C        -2.6879603108        1.5400520529      -18.7262436270
 C         1.7841383080       -0.0655312009      -21.4698993051
 C         2.9844254210       -1.2445336730      -19.6139880625
 C         9.2687589585        2.5504240055      -21.7137174092
 C         8.1554597908        4.3443537428      -20.2753850623
 C         2.4756613854        4.1141746130      -24.6889341965
 C         4.5203569009        3.7732246760      -26.2149196888
 H         2.2735358375        4.8089760491      -27.4995987212
 H         3.6275987653        5.8095408508      -28.0828958061
 H         2.1328893901        6.5982510821      -27.6846085931
 H         6.0924229186        6.6243339164      -24.5951789248
 H         6.5672499848        4.9883423211      -24.9136110836
 H         6.3545127837        5.6076801042      -21.9253528964
 H         7.8638567288        6.0881019055      -22.8901004194
 H         7.8286400418        0.4820303958      -20.5731440418
 H         6.9511960628        0.5358061259      -22.1683257502
 H         5.7935362785        0.4006567086      -19.3520402774
 H         5.9810976140       -1.0010273676      -20.4990802792
 H         3.1655238619        1.4215496115      -17.3749008078
 H         2.0389445819        0.0067977654      -17.7167663540
 H         1.2502566510        2.9504126191      -17.5075820935
 H         1.0276933658        1.5311510023      -16.3713132253
 H        -2.4808262844       -0.3627963266      -16.7071703168
 H        -3.7235075970        0.8035914810      -16.2029677220
 H        -3.5984591629        0.0406248756      -13.9992334695
 H        -2.0019782376        0.7808726804      -14.0352433779
 H        -3.3894785615       -3.6622865646      -10.7415202407
 H        -4.5228592162       -4.2560513412      -11.8105013306
 H        -6.3869829766       -2.7876249782      -10.9439154317
 H        -5.1484703713       -1.6938571460      -10.2261478753
 H        -5.5194421394       -6.0420689929       -7.1870122282
 H        -7.1018949287       -5.6613764388       -8.0265381763
 H        -6.7794911487       -6.3172256990       -5.0487968611
 H        -7.4815596125       -7.5066675837       -6.2672398632
 H       -10.8897874303       -7.5237521878       -2.6792627300
 H       -11.2599905642       -6.0222702857       -2.1155997358
 H       -10.5410349313       -6.8836673324       -0.2055400726
 H        -8.9430189815       -6.4215695101       -0.7156922348
 H        -6.1635681619       -8.8151991625       -1.3780137892
 H        -5.4805415872       -9.5072268026        0.0603958407
 H        -3.9048018309       -8.2225450854       -0.5582528766
 H        -4.6513249384       -7.1810332053        0.6433898397
 H        -1.4127590284       -4.2732938182       -2.0452406669
 H        -2.4675579084       -3.6823188375       -0.6196676980
 H        -3.1968807663       -2.2226380559       -3.0056978636
 H        -1.5070455520       -2.2183433648       -2.9882044551
 H        -4.7873147137        0.9861854589        0.5881168057
 H        -4.2925873986       -0.6736720672        0.2900466241
 H        -6.4304336298        0.9721102963       -1.0206571151
 H        -6.9755005454        0.1429128367        0.4394801673
 H        -8.9230498114        0.3964078101       -3.1050900733
 H       -10.2118948134       -0.0531285544       -2.1836265601
 H       -11.2282404774       -1.2746880853       -4.2020949099
 H        -9.8952330047       -1.2088756929       -5.1760376505
 H       -14.4318168771        0.4785544362       -7.6903591851
 H       -13.5544069657       -0.9004781710       -8.3849469012
 H       -13.1121069063        0.7430929183       -8.6746433264
 H       -13.3843501590       -0.0055834910       -4.5148686767
 H       -14.1572828371        1.3234314732       -5.4434519267
 H       -13.0185720871        1.6696603099       -4.0457103650
 H       -11.0012949981        2.3649031661       -6.9136603690
 H       -12.0108692550        3.1192621550       -5.5757498990
 H       -12.6961087278        2.7801225616       -7.1189648984
 H        -9.1190291491       -3.4794967593       -0.2757383371
 H        -7.4464827722       -3.1985927410        0.0964974269
 H        -7.9604446649       -3.7140552281       -1.4934118339
 H       -10.0891119074       -1.5632970751        0.0508577152
 H        -9.5546440977        0.0299910009       -0.5563827286
 H        -8.7166164763       -0.8521232176        0.8795990570
 H        -2.2996055356        1.8096577844        0.2868778707
 H        -0.7580867618        0.8675613300        0.1737074139
 H        -2.2403940595        0.1358681292        0.6394976556
 H        -1.9596626406        1.7643577562       -2.9097606626
 H        -2.2172522041        0.1623731259       -3.5640527467
 H        -0.6642801449        0.5765643131       -2.8293755165
 H        -2.1191294031       -7.6536556084       -0.9618771501
 H        -2.1566556364       -6.2258989467       -0.0948170491
 H        -1.2650878627       -6.3786504522       -1.6576012034
 H        -3.4008607561       -8.1877898431       -2.8138774902
 H        -2.4166153381       -7.0283697671       -3.7984159632
 H        -4.2113332817       -6.9684168167       -3.8158039964
 H        -9.9893550932       -8.2840256985        1.5567434726
 H        -8.9700680460       -9.3712944476        2.4290310649
 H       -10.2786241212       -9.9421015905        1.2548283183
 H        -7.4855999264      -10.7566766445       -0.7596554752
 H        -8.9559224801      -11.2014945243        0.0074406008
 H        -7.5461030762      -11.1010371658        0.8567453248
 H       -11.7219091877       -5.1975770880       -4.0477014441
 H       -11.9354451242       -5.9226576270       -5.6812453152
 H       -10.9588710483       -4.3777184481       -5.4702799638
 H       -10.1919931870       -7.8027837469       -6.2282732701
 H       -10.9541447791       -8.1802390431       -4.8477328239
 H        -9.2518367980       -8.3361956781       -4.9636904519
 H        -6.4942346847       -1.3135424746       -6.4575801400
 H        -6.1883502634       -0.8567113290       -8.0359093903
 H        -4.8887420254       -1.7168318615       -7.3020564211
 H        -8.2368645423       -3.9261735869       -8.5406880291
 H        -7.9525181840       -2.1606861592       -9.2336074740
 H        -8.4401272907       -2.5848903780       -7.4771597077
 H        -1.3661633669       -3.9571831806      -11.9825039555
 H        -0.6929873067       -3.3731947243      -13.4285286521
 H        -2.1761867969       -4.1833705432      -13.3591625815
 H        -1.9975055788       -0.0732474856      -11.9864568660
 H        -0.5307439485       -1.1348354960      -12.2151657199
 H        -1.7269556785       -1.4155588988      -10.8702031318
 H        -1.0178032235        3.9312601702      -16.8942676588
 H        -2.7224668835        3.9596582271      -17.2367196165
 H        -1.5359558168        3.9097149964      -18.6982061324
 H        -2.6925171321        0.4154704755      -18.6726129173
 H        -2.4641310798        1.8145352754      -19.7525158380
 H        -3.7482888323        1.7428110145      -18.6389629154
 H         1.7658633166       -1.0667115660      -21.9076471352
 H         1.9578101541        0.6099361684      -22.3262178338
 H         0.8824142742        0.0860485977      -20.9680930018
 H         3.1830315120       -2.0705764027      -20.2896052636
 H         2.0657462396       -1.5777621770      -19.1269250139
 H         3.7236263709       -1.4659539326      -18.8452642248
 H         9.8102830544        3.1890386488      -22.4040247030
 H         9.1233233721        1.5149248611      -21.9930529089
 H         9.8953881846        2.5292321858      -20.7361330715
 H         9.0088556675        4.8935705152      -20.6493896443
 H         8.2390821880        3.7220889884      -19.3581644862
 H         7.3722300772        5.1416419175      -20.3092883831
 H         1.9990271670        3.5094946438      -25.4358113414
 H         1.7838393567        4.8196992126      -24.3591987534
 H         2.6288258444        3.4035587960      -23.8265768483
 H         5.3110170711        4.3337090292      -26.6051682902
 H         3.9321029989        3.3124494394      -26.9618389674
 H         4.9520132299        2.8994923116      -25.5843213690
 Na       -6.3590235426       -3.8501878614       -3.1899688476
 Na        3.6288209856        3.2899384533      -21.6685224527
