232

 C         2.7075785279        5.8843069909      -27.2927528229
 C         3.3048972684        6.0885753421      -25.9232376533
 O         3.2240142824        7.1113268774      -25.3536053375
 C         3.8244691559        4.7315218834      -25.1663655718
 C         4.6340079378        5.1395167014      -23.9427745577
 O         4.2690278553        4.9716410637      -22.8339713363
 C         6.0832504511        5.5871621126      -24.1563365062
 C         6.9312635854        5.4088472929      -22.9792164454
 C         7.4677658262        3.9672899740      -22.7804430607
 O         7.5362611793        3.2890707297      -23.7916791790
 C         8.0078660410        3.4118809428      -21.4325752690
 C         6.8494831776        2.4784716697      -21.0259978222
 O         5.8125335229        2.9936880550      -20.5534577620
 C         6.8575893326        0.9130127602      -21.0243888355
 C         5.6011953691        0.0933986587      -20.3103973971
 C         4.2196691734        0.3767483116      -21.0040619768
 O         4.2792934379        1.0668420454      -22.0140676757
 C         2.9309487479       -0.0398113474      -20.3015615655
 C         2.5719447909        1.1866245561      -19.3473412490
 O         2.6576998795        2.3429244910      -19.7544527856
 C         2.1140453205        0.9624945963      -17.8689978903
 C         1.0440225678        2.0819543393      -17.5251044750
 C        -0.2184318891        1.6509879708      -18.3275199378
 O        -0.1195770718        0.9238870577      -19.2940843548
 C        -1.5798413163        2.0973661715      -17.8175589209
 C        -1.7124751157        1.5433941510      -16.3398063732
 O        -0.9403399321        1.8757351537      -15.4586663389
 C        -2.8340148482        0.4798254683      -15.9520599646
 C        -2.7927711617        0.0713699991      -14.4829449297
 C        -2.2551274658       -1.3884799520      -14.3395650051
 O        -1.4696478637       -1.9319700997      -15.1006326955
 C        -2.3782166534       -2.0814333525      -12.8920833100
 C        -3.8892869533       -2.2371953136      -12.4451658004
 O        -4.7845799962       -1.4778740544      -12.7792594515
 C        -4.3136751565       -3.1714026783      -11.2649172249
 C        -5.5038882270       -2.6919847639      -10.3375228395
 C        -5.4994770234       -3.5624008675       -8.9898516299
 O        -4.6069351689       -4.3914723100       -8.8766287952
 C        -6.4559626261       -3.0714673477       -7.8402121788
 C        -6.4479446617       -4.0445637272       -6.6011627721
 O        -6.1338460538       -3.7471104101       -5.4886376269
 C        -6.5839500064       -5.5078221754       -7.0689399058
 C        -7.3956820250       -6.3158885965       -6.0233561819
 C        -8.7185174168       -5.5360719622       -5.7395590202
 O        -8.8228909177       -4.4650678642       -6.2239090406
 C        -9.7784467610       -6.2256365800       -4.8810288217
 C        -9.2945786311       -6.1768759414       -3.3240466747
 O        -8.3184089583       -5.5404862427       -3.0716771251
 C       -10.3498675712       -6.6472090988       -2.2263480494
 C        -9.7040380021       -6.9871265520       -0.8937557024
 C        -9.1522909578       -8.4710736441       -0.9424801862
 O        -9.1942325436       -9.0270882077       -2.0430385372
 C        -8.4904801183       -9.1602665429        0.3364284530
 C        -7.3187385303       -8.1569518909        0.5375926738
 O        -7.3839983274       -7.0647331076        1.1291825727
 C        -6.1446801314       -8.5919015167       -0.3171469412
 C        -4.7162746498       -7.7249421646       -0.3534630023
 C        -4.7212766353       -6.4326186992       -1.2804299911
 O        -5.6515653810       -5.6433452334       -1.3081501743
 C        -3.3452009992       -6.1980971804       -2.0197427229
 C        -3.2572176829       -4.6811186198       -2.6210667789
 O        -4.1449586790       -4.2817572314       -3.4074314499
 C        -2.3134625626       -3.7548882039       -1.9539066980
 C        -2.2399354963       -2.2963606647       -2.3466951830
 C        -2.5356598769       -1.3189111560       -1.2305852765
 O        -2.7839999060       -1.6678596969       -0.0810518451
 C        -2.6058767458        0.2239642684       -1.4587347285
 C        -4.0734468221        0.5528168349       -1.4657809022
 O        -4.6535990141        1.0877742884       -2.3713112085
 C        -4.8712935571        0.0958145341       -0.2778443797
 C        -6.4129493260        0.0896848646       -0.4286350157
 C        -6.7700306142       -1.2206571699       -1.1360383599
 O        -5.9585118031       -1.7776177254       -1.8319404094
 C        -8.2638247286       -1.7914927940       -1.0574752872
 C        -8.7583497895       -1.7371184051       -2.5506006567
 O        -8.3835599307       -2.6077231912       -3.3635674060
 C        -9.5604254906       -0.5176023390       -3.0389064890
 C       -10.4615277458       -0.7327816139       -4.3613727440
 C       -10.6083843562        0.6510771704       -4.9595585188
 O        -9.7577970742        1.5459663465       -5.0219113205
 C       -12.0098384259        0.8874600476       -5.7554054818
 C       -12.2727375379       -0.1951651546       -6.9805354208
 O       -11.5373410657       -1.1694873854       -7.0832608019
 C       -13.3981490930        0.2147255177       -7.9731664200
 C       -13.3075974121        0.9104229554       -4.7858800412
 C       -12.0100503595        2.3589902480       -6.3267793702
 C        -8.1349694266       -3.3124707223       -0.6813914806
 C        -9.1035471276       -0.9815222262       -0.1066395242
 C        -1.9208886439        0.9422418263       -0.2644188317
 C        -1.8670810703        0.6762415527       -2.7807644320
 C        -2.1748017346       -6.5062821298       -1.0654379295
 C        -3.3346660164       -7.1134250876       -3.2752690733
 C        -9.4237443222       -9.2022466358        1.5956570866
 C        -8.0189932639      -10.5484649677       -0.0391982466
 C       -11.0594611670       -5.3501129566       -4.9666438025
 C       -10.1648091747       -7.6493028583       -5.2085121758
 C        -5.8084227489       -1.7048017144       -7.4073737405
 C        -7.8950963992       -2.9013105186       -8.4044988575
 C        -1.6516564791       -3.3955227309      -12.8086449466
 C        -1.7848546678       -1.1101967875      -11.7824287567
 C        -1.8274980195        3.6821294289      -17.7452047491
 C        -2.8028669041        1.6418358449      -18.6623131692
 C         1.8391069095       -0.1887077670      -21.4929353430
 C         2.8621968951       -1.2818882360      -19.5239107163
 C         9.2693373897        2.6254084001      -21.7899098035
 C         8.1631724390        4.4139117778      -20.3031968980
 C         2.4413050641        4.0465977227      -24.7710262824
 C         4.6621583390        3.8283059274      -26.0495723900
 H         2.4588318774        4.8782798891      -27.4761205344
 H         3.4843881021        6.1566070680      -28.0905023928
 H         1.8243687353        6.4720570638      -27.5143716797
 H         6.1282983246        6.6215022585      -24.2790754895
 H         6.5098513932        5.2183724625      -25.0480497195
 H         6.3119917585        5.6095374966      -22.0668902869
 H         7.6870532404        6.1395081710      -23.1366476714
 H         7.7476023263        0.5986875747      -20.5043376757
 H         6.9550531317        0.3578756487      -22.0066327006
 H         5.5382817764        0.3231160367      -19.1514141397
 H         5.9419775289       -0.8896530434      -20.4381537138
 H         3.0501578351        1.0640970389      -17.2493416952
 H         1.5934938802       -0.0083181006      -17.6724584636
 H         1.3346578001        3.0766555236      -18.0568197057
 H         0.8500372675        2.2940843874      -16.4795385592
 H        -2.5843651514       -0.3793149852      -16.6431610144
 H        -3.7676788706        0.8828614055      -16.2522603940
 H        -3.7321553152        0.2098715435      -14.0386022669
 H        -2.1100769361        0.7148888621      -13.8926956240
 H        -3.4325277181       -3.5445254119      -10.8504048184
 H        -4.7140995633       -4.1224087638      -11.7338271016
 H        -6.4921610454       -2.6677363500      -10.9087725843
 H        -5.2501737697       -1.6758449134       -9.9644179340
 H        -5.5417956711       -5.8381629348       -7.2184706982
 H        -7.2131599744       -5.4539892067       -7.9983519049
 H        -6.8733773941       -6.5098911274       -5.1138369206
 H        -7.7626571862       -7.3005584283       -6.3798788242
 H       -11.0389685725       -7.4438194217       -2.5161443267
 H       -11.0749894964       -5.8613553931       -2.1172527798
 H       -10.3986680711       -6.8786658155       -0.1223704150
 H        -8.9304607002       -6.2960835066       -0.7064305823
 H        -6.4686218442       -8.7281580272       -1.3542312717
 H        -5.8231912416       -9.5296982918        0.0699427557
 H        -4.0210663927       -8.4899341122       -0.6498306741
 H        -4.4429532515       -7.4145106616        0.6430282480
 H        -1.3620420302       -4.2105748729       -2.0273738754
 H        -2.6353120115       -3.7448019528       -0.9005484991
 H        -2.8836576089       -1.9587029282       -3.1375532892
 H        -1.2102659628       -2.1720007078       -2.6627055199
 H        -4.4970251130        0.6177131219        0.6067246043
 H        -4.5517420648       -0.9661580048       -0.1042417697
 H        -6.9002200478        1.0032856155       -0.8600997140
 H        -6.8287631776        0.0313206702        0.5639929777
 H        -8.8481227720        0.3278623535       -3.1593074009
 H       -10.0781108850       -0.1847718076       -2.1504979640
 H       -11.2629378118       -1.3271353034       -4.1377850185
 H        -9.9775383892       -1.2402016030       -5.1729378852
 H       -14.2968454519        0.8039595041       -7.5400023195
 H       -13.7562706005       -0.6121622555       -8.5587217715
 H       -13.0469110780        0.9780541838       -8.7170383588
 H       -13.1414397460       -0.0684280288       -4.1685102753
 H       -14.2048789686        0.8590787250       -5.3783197160
 H       -13.2346191397        1.7926526895       -4.1509309897
 H       -11.2216325078        2.3319360304       -7.0839262562
 H       -11.9031512760        3.0811871867       -5.5653955480
 H       -12.9264644150        2.5835326548       -6.8379348349
 H        -9.1161685397       -3.6947680349       -0.3470618970
 H        -7.4369812568       -3.3830560277        0.1652367580
 H        -7.8222765298       -3.9517559747       -1.5467340613
 H       -10.1714367876       -1.2410580882       -0.1140314623
 H        -9.0266494000        0.0934670379       -0.3442346842
 H        -8.7919811676       -1.2015991789        0.9194034135
 H        -2.2508140351        1.9366204597       -0.1900598758
 H        -0.8336410191        0.9241362083       -0.2330663313
 H        -2.2087762434        0.4417298331        0.6541650107
 H        -1.5780773424        1.7620368906       -2.8497431174
 H        -2.4453286167        0.4484494122       -3.7369695159
 H        -0.9125147413        0.1710014796       -2.8546621721
 H        -2.0909972982       -7.5475712212       -0.6588398860
 H        -2.3300966456       -6.0195117955       -0.1791741393
 H        -1.2138863971       -6.2690493100       -1.5009407566
 H        -3.7128336037       -8.0965586492       -2.9943690220
 H        -2.3617163225       -7.2384527697       -3.6612590423
 H        -4.0330404655       -6.7036450469       -4.0384189740
 H        -9.7766275588       -8.2133863023        1.8898081597
 H        -8.9400649273       -9.5699534044        2.4840432824
 H       -10.3152686198       -9.8112284603        1.3332949699
 H        -7.5540901544      -10.6724813380       -1.0117837755
 H        -8.7785691381      -11.3278134284        0.0374639893
 H        -7.2303828163      -11.0062944142        0.5854500432
 H       -11.5437020903       -5.1390990865       -3.9979922594
 H       -11.7704945838       -5.9316785721       -5.5654641356
 H       -10.7559336197       -4.3969149360       -5.4728217637
 H       -10.2762304745       -7.8504748190       -6.2505616855
 H       -11.1319108877       -7.9664298964       -4.7686421693
 H        -9.3817339476       -8.3513280154       -4.8997715094
 H        -6.0998987417       -1.6384354634       -6.4121005088
 H        -6.2548631308       -0.8676460189       -7.8793894211
 H        -4.7527971315       -1.7865110259       -7.6599217712
 H        -8.1791190290       -3.8833350251       -8.7387355223
 H        -7.8152602318       -2.1559637307       -9.2027777665
 H        -8.5939239104       -2.6236748741       -7.6044424533
 H        -1.4349899632       -3.8050101296      -11.9026298515
 H        -0.6268317682       -3.3606480510      -13.3927169110
 H        -2.1640994387       -4.2837354758      -13.2505562350
 H        -2.2093925864       -0.0937272775      -11.9801754984
 H        -0.7331645477       -1.0841508350      -11.9199136343
 H        -2.0341479810       -1.5321636005      -10.8517537950
 H        -1.2285495269        4.0840595228      -16.8742519840
 H        -2.7798827273        3.7260468083      -17.3745849498
 H        -1.7233837259        4.1001395202      -18.7186182674
 H        -3.1219051842        0.5876867784      -18.5761586779
 H        -2.6887753137        1.8624890926      -19.7619926046
 H        -3.7721855394        2.1117319182      -18.4424982641
 H         1.7600977612       -1.1131967836      -21.9401098054
 H         2.1621141520        0.5819790249      -22.2325023744
 H         0.9097126224        0.0584328777      -21.0323714251
 H         3.1227743402       -2.2026147956      -19.9382250408
 H         1.8248763565       -1.4999039800      -19.1463121275
 H         3.4355000871       -1.2679472487      -18.6083099937
 H         9.6380712728        2.8846053552      -22.7892163091
 H         9.0464997435        1.5482747037      -21.5753555634
 H        10.0584821094        2.8640674420      -21.0436049917
 H         8.8845999159        5.0805940118      -20.6975979191
 H         8.3530683203        3.7526579815      -19.4270848769
 H         7.2660722313        5.0824210963      -20.2487560614
 H         2.0636983379        3.2955429901      -25.4811335943
 H         1.5662227363        4.7240079920      -24.5387042070
 H         2.6376697361        3.4916669988      -23.8428103596
 H         5.3483821067        4.3489843644      -26.6620463093
 H         3.8868855300        3.3928279162      -26.7140962254
 H         5.0962259712        2.9897534121      -25.5515255275
 Na       -6.4311556613       -3.8960086075       -3.1012965642
 Na        3.5311512998        3.2214418315      -21.6717807630
