232

 C       -22.8760763399       -5.7959038428       -2.6360037221
 C       -21.3511152171       -5.7632946272       -3.0565547364
 O       -20.5168073439       -5.6949291391       -2.1704238549
 C       -20.9821578618       -5.3890498367       -4.5473950777
 C       -20.5709611527       -3.8658747499       -4.4668853432
 O       -20.6299180935       -3.2624227573       -3.3924846791
 C       -20.1859996860       -3.0476535670       -5.7174198346
 C       -18.9885798869       -2.1058356468       -5.3639454513
 C       -17.7547807690       -2.8603944047       -4.7077303331
 O       -17.7641689706       -4.0805362893       -4.6000969903
 C       -16.4850310227       -2.1434520164       -3.9995380663
 C       -16.1908016480       -2.8755082261       -2.6470117859
 O       -17.0902419092       -2.9542144489       -1.8073761839
 C       -14.8076240919       -3.4991119871       -2.3894286225
 C       -14.8699917232       -4.2201726921       -1.0253024222
 C       -15.4248502789       -5.7276437251       -1.1638651871
 O       -16.3876090249       -5.9719837997       -1.8823676432
 C       -14.7157180396       -6.8965781212       -0.4487106853
 C       -13.3295977257       -7.1060438820       -1.1961746506
 O       -12.8063735517       -6.2492406676       -1.9195027583
 C       -12.6485678761       -8.5587552936       -1.1746913144
 C       -11.3067783841       -8.4371394056       -2.0124039303
 C       -10.3488859301       -9.6356741816       -1.6699531579
 O       -10.4838274977      -10.2695744681       -0.6468100493
 C        -9.3521528993      -10.0554452815       -2.7600716515
 C        -8.1381219315       -9.1015733929       -2.9842496725
 O        -8.1320627493       -7.9750280079       -2.5394467473
 C        -6.9463697120       -9.5692325522       -3.7652453875
 C        -5.9631266144       -8.3992512550       -4.0308504565
 C        -6.5179255645       -7.4600221422       -5.0897793666
 O        -7.2794508879       -7.8492347243       -5.9320683543
 C        -6.0792510558       -5.9314969845       -5.0375360721
 C        -4.7336777092       -5.8771547228       -5.8482565195
 O        -3.6572115096       -5.9589039483       -5.2234982899
 C        -4.7095837830       -5.9120208810       -7.4811439207
 C        -5.3062555765       -4.6682835813       -8.2265623919
 C        -4.7841791395       -4.7552080609       -9.7178165472
 O        -4.5503927959       -5.8281126767      -10.2135510838
 C        -4.6850280807       -3.4484231181      -10.7115259109
 C        -3.1645023532       -3.1422336843      -10.6424155816
 O        -2.6848503379       -2.7039027986       -9.5986291148
 C        -2.3688844438       -3.4540905951      -11.9196353035
 C        -0.8478324417       -3.9107378175      -11.6053815329
 C        -0.0013365674       -3.5037485809      -12.8597366966
 O        -0.4299937268       -2.7479149083      -13.7018526250
 C         1.3700733556       -4.3080258608      -12.9570534129
 C         2.4099207760       -3.2510775047      -13.1881815015
 O         2.8396933375       -3.0274471749      -14.2727517589
 C         2.7562923820       -2.2638272701      -12.0603542695
 C         3.8728895007       -1.3680714736      -12.3841968731
 C         3.6090651244        0.0590668725      -11.7805105295
 O         2.4970000604        0.4927238337      -11.6562529372
 C         4.8949727421        1.0014327408      -11.4886357673
 C         4.8663057641        2.2547058366      -12.4911868020
 O         5.4584359164        2.1167965511      -13.5429624651
 C         3.9788567215        3.3915799320      -12.1020155057
 C         4.7607483265        4.6344771374      -11.7237910199
 C         5.4502115201        5.3057256688      -13.0039742686
 O         4.9445298680        5.0735987218      -14.0903446916
 C         6.6293275325        6.3822909612      -12.7716285655
 C         7.1305595570        6.8565548231      -14.1869828324
 O         6.8053216531        7.8920932786      -14.6820179238
 C         8.0449774667        5.7591634501      -14.9830024024
 C         8.2051453789        6.2033140844      -16.4290523730
 C         7.0102339970        5.8886117877      -17.4099516275
 O         6.2383479287        4.9883117968      -17.1139811243
 C         6.7401760383        6.7781138884      -18.7284449035
 C         8.0612622037        7.2674279183      -19.5349334526
 O         8.7120594445        8.2142420319      -19.1053455531
 C         8.4970605307        6.6465540865      -20.9015438444
 C        10.0283398998        6.2438149780      -20.6065993347
 C        10.0517902885        4.8930236021      -20.0182230592
 O        10.2500377430        4.8571398341      -18.8112165509
 C        10.1109237013        3.4465460695      -20.7817404968
 C         8.9889389566        2.5807880406      -19.9654727771
 O         7.8777063099        2.5637185376      -20.3758746096
 C         9.4882075688        1.5830547998      -18.8998728207
 C         8.6386229600        0.4108591276      -18.3993740159
 C         7.3427722238        0.8977495287      -17.6802617202
 O         7.5180270771        1.8640316662      -16.9407446143
 C         5.8866787898        0.3429284777      -17.9403185293
 C         5.0024024826        1.7383880319      -18.0162910082
 O         4.6825752476        2.3685499145      -17.0328269500
 C         4.5583795477        2.3646372945      -19.4585566403
 C         5.8199032571       -0.5486348036      -19.2207296024
 C         5.3933929083       -0.4917913407      -16.7063005884
 C         9.7054291228        3.4981309775      -22.2580237743
 C        11.5410605056        2.9507221679      -20.5724513294
 C         5.6521646887        6.0060833492      -19.5913718346
 C         6.1492851984        8.0488501409      -18.1404564050
 C         6.0296917881        7.5449140442      -11.9304236072
 C         7.8082775411        5.7676237057      -12.0622783377
 C         4.7989883283        1.4525606696       -9.9816715334
 C         6.1825217685        0.1535618531      -11.6820323084
 C         1.7327315268       -4.9891479459      -11.5423100112
 C         1.4898372373       -5.4046422450      -14.0991542494
 C        -5.2225900811       -4.0315252900      -11.9953367135
 C        -5.4257633703       -2.2368737883      -10.1685393825
 C        -7.1287655700       -5.0307870329       -5.5506105913
 C        -5.8160552647       -5.4829570748       -3.6144089977
 C        -8.8021899579      -11.4492188827       -2.5461237501
 C       -10.0461393310      -10.0389609426       -4.1449770577
 C       -14.5769459620       -6.6613819057        1.1053759066
 C       -15.5105793954       -8.1694306692       -0.7093080627
 C       -15.2903573779       -2.0773418069       -4.9596410686
 C       -16.7245131580       -0.6487405167       -3.5731227908
 C       -19.8174975130       -6.2418145801       -5.0023503118
 C       -22.1761936214       -5.5470954652       -5.5405054536
 H       -23.2880202511       -6.7973536175       -2.5554914772
 H       -23.3766291167       -5.0733232498       -3.2426050007
 H       -22.9645417528       -5.4934581265       -1.5540586204
 H       -21.1030691713       -2.5075103929       -5.9623664413
 H       -19.9025490693       -3.7572174607       -6.5437434010
 H       -19.3461552978       -1.3877594055       -4.6116232851
 H       -18.6083563373       -1.5400926372       -6.2533508484
 H       -13.9670502285       -2.8529078209       -2.4224183801
 H       -14.5585233219       -4.2803144740       -3.1688460317
 H       -15.5068564716       -3.6555258673       -0.3219789113
 H       -13.8819057415       -4.4289895118       -0.6304649080
 H       -13.3085709330       -9.2362634305       -1.6412218589
 H       -12.5081377113       -8.9104575426       -0.1199629167
 H       -10.8626885078       -7.5184837288       -1.6982694874
 H       -11.3926316429       -8.3267508283       -3.0363204275
 H        -7.2561666603       -9.9024319939       -4.7917685709
 H        -6.5065119682      -10.4814194810       -3.3400383117
 H        -5.0705889604       -8.7813031687       -4.5513425443
 H        -5.7075143358       -7.8862944786       -3.1050584339
 H        -5.3101204294       -6.7292905513       -7.7453956039
 H        -3.7461938233       -6.1988636261       -7.8181110195
 H        -5.0480851939       -3.6663306081       -7.8319675625
 H        -6.3691910576       -4.7687759276       -8.2039396857
 H        -2.4934173053       -2.5560739757      -12.4682480627
 H        -2.8001264084       -4.3272415530      -12.4091926361
 H        -0.7548288164       -4.9636755876      -11.5514337672
 H        -0.7586919081       -3.4559417959      -10.6671495365
 H         2.9354159666       -2.8183673579      -11.1703908682
 H         1.9086421410       -1.6312212113      -11.9341276615
 H         3.8037290435       -1.2531823849      -13.5214162036
 H         4.8171127383       -1.8260059190      -12.1538163824
 H         3.4850556423        3.0861725833      -11.1774509351
 H         3.0899463232        3.5499938105      -12.6651758001
 H         5.5985784746        4.4256188167      -10.9843451108
 H         4.0324999112        5.3517539420      -11.2419716280
 H         7.7086086757        4.7635323540      -14.9450330687
 H         9.0636716540        5.8089304410      -14.5768293650
 H         9.0662903687        5.6960802605      -16.9521144683
 H         8.3069600814        7.4028286997      -16.5024759129
 H         8.5401846567        7.3519604505      -21.7088600353
 H         7.8770614790        5.7681662760      -21.1625426500
 H        10.3713137041        7.0195376574      -19.9557458893
 H        10.5232535040        6.3379231593      -21.6125531083
 H         9.5987877014        2.0515885463      -17.8392319040
 H        10.4243710272        1.0496342244      -19.1957530757
 H         9.2309513218       -0.1874604810      -17.6849808788
 H         8.3524740754       -0.3494752350      -19.1015303126
 H         3.8123926632        1.6083642973      -19.6571639771
 H         5.2496407422        2.5138991830      -20.2778548419
 H         3.9620776694        3.3161850688      -19.2509393802
 H         4.8270991517       -0.9445230407      -19.5718448932
 H         6.5497441587       -1.3248975354      -19.0562088299
 H         6.1964772529       -0.0597732503      -20.1561019369
 H         5.4539708951        0.0260382778      -15.7320278075
 H         5.9252732564       -1.4966585962      -16.6799656904
 H         4.3046910425       -0.7453684143      -16.8062865062
 H         9.9350545686        2.6156008291      -22.8350407121
 H        10.1065310576        4.2801651975      -22.8424300050
 H         8.6718215414        3.6786883363      -22.2566910189
 H        11.6148364005        1.8314560787      -20.6586632500
 H        11.9113463077        3.2671126555      -19.6019297474
 H        12.0979409559        3.3574696243      -21.4067970267
 H         4.7756200113        5.9909475589      -18.9381882056
 H         6.0876605699        5.0463521190      -19.9295399957
 H         5.4015607907        6.6538569052      -20.4741888732
 H         7.0147467755        8.5664813144      -17.6454136395
 H         5.3762822855        7.8419649087      -17.4429113013
 H         5.7345653731        8.7616041387      -18.8408843750
 H         6.7104888994        7.9034991015      -11.2007245325
 H         5.1346209880        7.2630283311      -11.2683801664
 H         5.7881246685        8.4281681236      -12.5360321174
 H         7.6701821651        5.6378469391      -11.0181308285
 H         8.6876915200        6.4306623878      -12.2552576357
 H         7.9868958889        4.8225054556      -12.4393716608
 H         5.3160186580        2.4110482112       -9.6735181733
 H         5.0944163270        0.6991817554       -9.2903350429
 H         3.6655674543        1.6399147018       -9.8263790171
 H         5.9716725050       -0.7278326988      -11.1621811971
 H         7.0663204297        0.5996519792      -11.2783300430
 H         6.1098622686        0.0004042207      -12.7554030043
 H         1.8080686389       -4.2542900326      -10.7001339758
 H         2.5666201656       -5.6075891973      -11.5544186297
 H         0.8876438227       -5.6091796121      -11.3829797205
 H         0.4495738561       -5.6742205221      -14.3850170548
 H         1.9363435106       -6.3566107923      -13.7276120375
 H         2.0051943777       -5.0125006056      -14.9549364539
 H        -6.2711725250       -4.2888370805      -11.9536844971
 H        -4.6696966537       -4.9113660253      -12.2341166314
 H        -5.1876839945       -3.3709837738      -12.8384534505
 H        -5.1723670344       -1.3889426594      -10.7317144225
 H        -5.1719281969       -2.0123222107       -9.1449528038
 H        -6.4889650837       -2.4423302780      -10.1885799074
 H        -7.2588801736       -5.0472917944       -6.5986101514
 H        -6.8955028289       -3.9674420560       -5.2123225854
 H        -8.0875056234       -5.2180508407       -5.0776652982
 H        -6.7608924966       -5.5988049910       -3.1236491466
 H        -5.5144293785       -4.4437249068       -3.6278148832
 H        -5.0440499092       -6.0954376712       -3.0948904560
 H        -9.5846245699      -12.2661679905       -2.4614065524
 H        -8.1617536616      -11.5391242428       -1.6713092374
 H        -8.2016016060      -11.7488526177       -3.3942927038
 H       -11.0588603304      -10.4434868795       -4.0492284542
 H        -9.6298897186      -10.5661721845       -5.0308792642
 H       -10.0815418348       -9.0266494314       -4.5022075729
 H       -15.5388536307       -6.6652254839        1.5189918807
 H       -14.0905985409       -5.6837798789        1.2031497279
 H       -14.0581558243       -7.5035026278        1.5395894823
 H       -15.6305773044       -8.4279076092       -1.7160502532
 H       -16.4548822423       -8.0598926120       -0.2383478297
 H       -15.0691649830       -9.0080481351       -0.2180979246
 H       -14.9412914020       -3.0415099761       -5.0888600177
 H       -14.4297206154       -1.5247229120       -4.4971414686
 H       -15.6648505874       -1.5697202841       -5.8709076846
 H       -17.3694865644       -0.5789049428       -2.6339941361
 H       -17.1911173383        0.0405768325       -4.2619620986
 H       -15.7529452763       -0.2371997327       -3.3134275243
 H       -19.1373627117       -6.5044647375       -4.1130109535
 H       -19.2138372120       -5.8588411934       -5.8394633633
 H       -20.1527503765       -7.2671646225       -5.3368162749
 H       -22.0113258947       -5.1103365600       -6.4794219476
 H       -23.1468947128       -5.2071313634       -5.1449037769
 H       -22.3598503550       -6.6483617298       -5.6838065685
 Na      -18.2824420046       -4.8831273767       -2.4689157266
 Na        5.8556586965        3.1630411459      -15.4016563813
