232

 C         2.5933341621        6.0863565631      -27.1498090945
 C         3.2484443545        6.1498488898      -25.8020055871
 O         3.3932002075        7.1466414558      -25.1611801517
 C         3.8765219711        4.7537057816      -25.2004442988
 C         4.6801161457        5.0234284722      -23.8846945410
 O         4.2075758484        4.7384270485      -22.8227616655
 C         5.9801673504        5.7929345049      -24.0276854080
 C         6.9232833834        5.4772636353      -22.8550813285
 C         7.4993602249        4.0211649817      -22.9782213775
 O         7.5478042553        3.3051272913      -23.9538836432
 C         7.9614877322        3.3736632543      -21.5403081175
 C         6.7775218434        2.5427656207      -21.0809092390
 O         5.6855199194        3.2147528070      -20.8004000816
 C         6.8379035022        0.9615773765      -20.9637581556
 C         5.6179859233        0.4066971746      -20.0739977195
 C         4.2713126170        0.3574630774      -20.9526103843
 O         4.2905609286        0.6724093899      -22.1461201501
 C         2.9982983294       -0.0926046179      -20.1688522982
 C         2.6789140364        1.1847331599      -19.2318982688
 O         2.8890569396        2.2949245794      -19.6122139234
 C         1.9807023487        1.0258757791      -17.9403888605
 C         0.8447830611        2.0692409267      -17.8134025180
 C        -0.5255972260        1.7310090632      -18.5368658228
 O        -0.5123565779        1.1327497824      -19.5969152257
 C        -1.8804904875        2.1616315158      -17.7632269245
 C        -1.8945610606        1.5500905327      -16.3317579607
 O        -1.0322408423        1.8952418260      -15.5053064907
 C        -2.9716548681        0.5064344049      -16.0212584125
 C        -2.9808224420        0.2004571458      -14.5475410520
 C        -2.4506424578       -1.1646341859      -14.2176874959
 O        -1.9053311834       -1.7779595480      -15.1159941669
 C        -2.7047571397       -1.8019052058      -12.7824790947
 C        -4.1739927955       -2.1638205159      -12.4510497290
 O        -5.0961177024       -1.7138562210      -13.1354716712
 C        -4.3540496567       -3.1944350916      -11.3877699582
 C        -5.4741164658       -2.8537572212      -10.3990063724
 C        -5.2914651483       -3.4996488496       -9.0229278518
 O        -4.4636769561       -4.4277975046       -9.0159904821
 C        -6.1570402037       -2.9958886348       -7.8434097115
 C        -6.2653705917       -4.0527359565       -6.6504824262
 O        -6.2965481033       -3.7160399472       -5.5023612383
 C        -6.4720931514       -5.5463507220       -7.0217632569
 C        -7.3720156804       -6.1317367429       -5.8747205621
 C        -8.7125327161       -5.3450873691       -5.6187289903
 O        -8.9265388396       -4.3666471738       -6.2650402712
 C        -9.7962517783       -6.0155243532       -4.6586906578
 C        -9.3153638886       -6.1213131242       -3.1853389209
 O        -8.1444947565       -6.1406145716       -2.9009817820
 C       -10.3224708820       -6.2764967800       -2.0479075692
 C        -9.7763985121       -6.9930435998       -0.8172735102
 C        -9.2640200274       -8.3767656010       -1.0130119677
 O        -9.4754832547       -8.9858110612       -2.0921809943
 C        -8.4581445658       -9.0697682777        0.1904311775
 C        -7.1521474847       -8.1877869470        0.2942061534
 O        -7.0262213925       -7.1751492590        1.0199107778
 C        -5.9603483524       -8.5071006345       -0.6300196794
 C        -4.7730481405       -7.5583915237       -0.2633015652
 C        -4.6679079785       -6.2409428965       -1.1512434628
 O        -5.6307422985       -5.5934929824       -1.4577434768
 C        -3.2701727002       -6.0875801575       -1.9934598083
 C        -3.1213289160       -4.6082092082       -2.4989966801
 O        -4.0399309562       -4.1627495790       -3.2546221133
 C        -1.9905254906       -3.6855793360       -2.1014353142
 C        -2.1968917104       -2.2678091534       -2.5660234432
 C        -2.4374681830       -1.3328769127       -1.3875546470
 O        -2.3086592524       -1.6041200677       -0.1761547228
 C        -2.7906824462        0.1330557254       -1.7546869009
 C        -4.3590727757        0.4086905365       -1.5643299549
 O        -4.8975971447        0.6183939222       -2.5981110131
 C        -5.0228173763        0.5251639407       -0.1963309410
 C        -6.3867299110       -0.0409533458       -0.3112055021
 C        -6.7399117234       -1.3574120987       -1.1130190160
 O        -5.9862483618       -2.0905294874       -1.8077395510
 C        -8.2025206437       -1.9338423253       -0.9522558563
 C        -8.7224983393       -1.8998509926       -2.4400996031
 O        -8.2500266297       -2.6112842436       -3.3054177260
 C        -9.5950397627       -0.6508972721       -2.9236157818
 C       -10.2279232852       -0.8910925056       -4.2653774695
 C       -10.4652941367        0.4287119732       -4.9382441983
 O        -9.5842282464        1.2904650149       -4.9324772154
 C       -11.9310342103        0.7513945580       -5.6124062695
 C       -12.0010217633       -0.1690319718       -6.8897693984
 O       -11.6097462530       -1.3197499733       -6.8843910503
 C       -12.9272529700        0.2043118689       -8.0484967040
 C       -13.1569671220        0.5310035822       -4.6212832452
 C       -11.8699499733        2.2729716559       -5.9116198794
 C        -8.0819439944       -3.4461211473       -0.5241098742
 C        -9.2423977086       -1.1649897184       -0.0446892837
 C        -2.0680205654        1.1094104665       -0.6874216416
 C        -2.3892774100        0.4954147665       -3.1411684223
 C        -2.0169601062       -6.5583192854       -1.1451522507
 C        -3.3667542694       -6.9977934507       -3.2737108235
 C        -9.3752251823       -8.8580296402        1.4444491925
 C        -8.2208534366      -10.5117784089       -0.0339999527
 C       -11.1055930317       -5.3070960942       -4.6837856131
 C       -10.0493545385       -7.5357489755       -4.9431016037
 C        -5.5585669803       -1.7008035158       -7.2870404716
 C        -7.5978521307       -2.8096386595       -8.4251099568
 C        -1.8730891038       -3.0932965113      -12.9480697187
 C        -2.0536763473       -0.9190216312      -11.6398968995
 C        -1.8507469780        3.7185476263      -17.5704448315
 C        -3.0175676856        1.7138636775      -18.6830954412
 C         1.7370600050       -0.3292186192      -21.0684821165
 C         3.3254904993       -1.4303241935      -19.4151167773
 C         9.2070083022        2.4741136667      -21.6512915747
 C         8.3015777424        4.5322789625      -20.4635142268
 C         2.6526659508        3.8438335757      -24.7577528269
 C         4.6548714041        4.0356008574      -26.3685397589
 H         2.6427122675        5.1726711799      -27.7011263663
 H         3.1686070076        6.8551583417      -27.7192267717
 H         1.5482877707        6.3736105925      -27.2430366562
 H         5.5722049935        6.8098758016      -23.8967848967
 H         6.4475611789        5.7909223437      -25.0880226997
 H         6.4147056068        5.5893406405      -21.8353569218
 H         7.7984262861        6.1420798341      -22.9035722204
 H         7.8305389481        0.7795028198      -20.4353296443
 H         6.9364214830        0.4106825880      -21.9090131757
 H         5.6295079209        1.0744196352      -19.2024800113
 H         5.7266801061       -0.6766813319      -19.8354663163
 H         2.6449202386        1.1068822958      -17.0700817199
 H         1.5941319473        0.0303270197      -17.9374549893
 H         1.3468036126        2.9635376643      -18.2444054620
 H         0.6332620728        2.2856953938      -16.7756538983
 H        -2.8373452216       -0.3526071286      -16.6489026533
 H        -3.8964275646        1.0295894609      -16.3078298080
 H        -4.0645246508        0.3330875554      -14.2060592519
 H        -2.4262683780        0.8737517309      -13.8378279224
 H        -3.4521188611       -3.5932222229      -11.0190700752
 H        -4.8404868103       -4.0679609019      -12.0048771226
 H        -6.4773484615       -3.1473209774      -10.6384160862
 H        -5.5111114906       -1.7995246235      -10.2450920356
 H        -5.5804027609       -6.1543451766       -6.9948231716
 H        -6.9886365684       -5.6056769750       -7.9466808372
 H        -6.8566514530       -6.3071331357       -4.8899743025
 H        -7.6814338962       -7.2060881706       -6.1775150666
 H       -11.2442815840       -6.8271279474       -2.3808697301
 H       -10.8142093499       -5.3612618264       -1.7537917575
 H       -10.5823272905       -7.1313051265        0.0002343173
 H        -8.9919053827       -6.3424827102       -0.3618527693
 H        -6.3397865652       -8.2254294232       -1.6101622059
 H        -5.5572127659       -9.5312526511       -0.6641298260
 H        -3.8249127131       -8.2050894714       -0.3956791550
 H        -4.8505978043       -7.3382860115        0.7840206033
 H        -1.1014119142       -4.2225681931       -2.4600391542
 H        -1.8850392037       -3.7367677791       -0.9215677191
 H        -3.1571392980       -2.2512819442       -3.1457906610
 H        -1.4435566168       -1.9245839179       -3.1952707631
 H        -5.0514620256        1.5567811307        0.1901854924
 H        -4.4303250602       -0.0383274550        0.5331818132
 H        -7.1654897081        0.6373395422       -0.7905300493
 H        -6.8222489166       -0.0184780732        0.6790626451
 H        -8.9026230318        0.1838760782       -3.0719498721
 H       -10.2244555791       -0.3425222780       -2.0597358118
 H       -11.2253688292       -1.2982419930       -4.1899015026
 H        -9.6157288680       -1.6750968683       -4.8393648174
 H       -13.7762312416        0.8154254287       -7.7925192214
 H       -13.1401778106       -0.5845212079       -8.6535948169
 H       -12.4043056389        0.9181165691       -8.6888514463
 H       -13.1428039075       -0.4571976773       -4.1255653594
 H       -14.0072212432        0.6621467003       -5.2154158740
 H       -13.0628074648        1.3311477591       -3.9574403388
 H       -11.2295345908        2.4467384643       -6.8504056742
 H       -11.2923411536        2.7528636931       -5.1206976256
 H       -12.8785485611        2.7149654898       -5.8830908368
 H        -8.9826855786       -3.9483921371       -0.6312035687
 H        -7.7973603185       -3.5438518982        0.4727746657
 H        -7.3866791792       -3.8355758987       -1.2564679223
 H       -10.0804114727       -1.8503940266        0.0456198497
 H        -9.6180724692       -0.2693398765       -0.5207559817
 H        -8.8227582752       -0.8897843940        0.9774688358
 H        -2.1665301544        2.1968349403       -0.8641507108
 H        -0.9633507821        0.8577659973       -0.5786325300
 H        -2.4088762441        0.8862502322        0.3052739132
 H        -2.5807038640        1.5338150702       -3.4060597361
 H        -2.8934226345       -0.0934504722       -3.8543571105
 H        -1.3582987661        0.4756500418       -3.2865757266
 H        -2.0268757962       -7.7202137607       -1.0059411484
 H        -1.9163097607       -6.1713939413       -0.1405633475
 H        -1.1865906387       -6.1482383834       -1.7171637371
 H        -3.5498340524       -8.0912664488       -3.0939821815
 H        -2.3912629080       -6.8569642315       -3.7562414902
 H        -4.1757400005       -6.5626891471       -3.8689576189
 H        -9.1049380327       -7.9077273044        1.8935406600
 H        -9.0876412636       -9.5513819627        2.2313333024
 H       -10.4750322375       -9.1602468234        1.3509295018
 H        -7.5810421153      -10.8476465178       -0.8411699791
 H        -9.1471751088      -11.0092501634       -0.2375750131
 H        -7.8168181621      -11.0531806812        0.7949160115
 H       -11.8646078940       -6.0212945373       -4.3987078234
 H       -11.4402030977       -4.9499452652       -5.6397419196
 H       -11.0812796013       -4.5052402445       -3.9352023564
 H       -10.4120216017       -7.7599032665       -5.8747558044
 H       -10.7657148272       -7.9106143630       -4.2486819477
 H        -9.1420387606       -8.1524493313       -4.8649302173
 H        -6.1150903977       -1.4461642471       -6.4024096231
 H        -5.7431447125       -0.9279322603       -8.0219805071
 H        -4.4405297062       -1.8818576391       -7.3011192852
 H        -8.1051212441       -3.6990230667       -8.8506817004
 H        -7.6403843199       -1.9125386973       -9.1115700935
 H        -8.0815360938       -2.5295956915       -7.4779406374
 H        -1.8238748307       -3.6891056323      -12.1289641081
 H        -0.8593908088       -3.1082928680      -13.3863942525
 H        -2.3339667455       -3.7130256937      -13.6983811566
 H        -2.6329280017        0.0181485556      -11.5657296826
 H        -1.0364715998       -0.6127321631      -12.0391952838
 H        -1.9307715103       -1.5515359348      -10.8171503585
 H        -0.9677179954        4.0569786055      -16.9392489060
 H        -2.7946892543        4.0099335391      -17.1529379512
 H        -1.7277995680        3.9644674886      -18.6537588982
 H        -2.9987015542        0.7053976742      -19.0724254317
 H        -3.0655407110        2.3007992489      -19.5878375238
 H        -3.9936509009        1.7507149405      -18.3176808202
 H         2.1240535961       -0.7553120998      -21.9789749503
 H         1.3930932919        0.7498233772      -21.2974991122
 H         0.9858300745       -0.9907789169      -20.7014554420
 H         3.6137279964       -2.1588551781      -20.1255457073
 H         2.4537115540       -2.0119437512      -19.0349327529
 H         4.0600277050       -1.5270241876      -18.6102797801
 H         8.8802631559        1.5680565018      -22.0526120315
 H         9.6989909781        2.3434327935      -20.7040521030
 H        10.0282983695        2.8889338876      -22.2736719271
 H         8.8161955803        5.2629729070      -20.9959454150
 H         8.7816859446        4.0282445812      -19.6333189036
 H         7.3502215385        4.9204902856      -20.0652289371
 H         1.8539469745        4.0647126617      -25.4081872174
 H         2.2102546975        4.1509503480      -23.8413990332
 H         2.7732389877        2.7511833282      -24.6883844046
 H         5.3629729934        4.6875219303      -26.8338044561
 H         3.9458725708        3.8285482285      -27.1898145201
 H         5.1824311339        3.1064287773      -25.9672660025
 Na       -6.3263351681       -4.1250232826       -3.1724309861
 Na        3.5758054311        3.0307032573      -21.6860578865
