232

 C         2.2067239408        6.4163791429      -26.7338676259
 C         3.3201144065        6.2415946740      -25.6647877677
 O         3.7037807724        7.1330687739      -24.9836357898
 C         3.9387768023        4.7029724552      -25.3504102912
 C         4.6705213628        4.9606272729      -24.0541276094
 O         4.2381050572        4.4190622855      -23.0992580550
 C         5.9329296503        5.7862280073      -24.1230945798
 C         6.8571424773        5.6282497827      -22.8478435760
 C         7.5129213605        4.2211094216      -22.8937133735
 O         7.4661067033        3.6393163624      -23.9453377099
 C         8.1577508392        3.4821031054      -21.6400768675
 C         6.8975591628        2.6264069316      -21.0668129369
 O         5.8582566789        3.3279558277      -20.7479499266
 C         6.8326523531        1.1630707512      -21.0707412847
 C         5.7794897611        0.4947241074      -20.0748046866
 C         4.3584226258        0.3204930838      -20.7939254540
 O         4.3359391637        0.5532343948      -22.0030988048
 C         3.0944380691       -0.1541012058      -19.9178945959
 C         2.4632080094        1.1091482983      -19.2778195337
 O         2.6273094342        2.2364012574      -19.6831974994
 C         1.5554753795        0.8582267143      -18.0459059951
 C         0.6063538473        1.9946267752      -17.6180644118
 C        -0.7357267102        1.8181373394      -18.4050568248
 O        -0.7325471338        1.2819250355      -19.4793970471
 C        -2.0370297838        2.2698838378      -17.6648014779
 C        -2.3250888598        1.7515872750      -16.2829627619
 O        -1.5352209581        1.8828453896      -15.3937531451
 C        -3.6616954998        0.9446676956      -15.9912191707
 C        -3.5689497788        0.2118482090      -14.6687426622
 C        -2.8296416030       -1.1642622489      -14.4455391092
 O        -2.3311298141       -1.8575019082      -15.3043866174
 C        -2.7701456809       -1.8042100155      -12.9289535181
 C        -4.1984603960       -2.2948853439      -12.5310318994
 O        -5.1970717301       -1.8266118208      -13.0220726624
 C        -4.2041972587       -3.3453150511      -11.3003418136
 C        -5.4942243421       -3.0634390269      -10.4636067218
 C        -5.4077137550       -3.5816578142       -8.9405257171
 O        -4.6004011682       -4.4597920632       -8.7496196393
 C        -6.0622292739       -2.8523203101       -7.7333061339
 C        -6.1504236693       -3.8107971564       -6.5395724519
 O        -5.9113875863       -3.5939268044       -5.4039105364
 C        -6.5105823235       -5.2535936321       -6.8731479761
 C        -7.3318629984       -5.9652107624       -5.7983952683
 C        -8.7708002694       -5.4680968969       -5.6740956957
 O        -9.0093190847       -4.4179455514       -6.1596352769
 C        -9.8278661962       -6.0429523390       -4.6624795367
 C        -9.3445214604       -6.0274119256       -3.1024994344
 O        -8.1766210686       -5.9773958146       -2.8726088495
 C       -10.3629148198       -6.1243892624       -1.9771673582
 C        -9.7355333705       -6.7158012936       -0.6361412890
 C        -9.2798984111       -8.0741617049       -0.8589383217
 O        -9.5311976272       -8.6427687789       -1.8986962377
 C        -8.4474330644       -8.8121643053        0.1719102239
 C        -7.0450181159       -8.0796848623        0.3524645385
 O        -6.8516724351       -7.3062896324        1.2994339034
 C        -5.9422231368       -8.3980092315       -0.7097779759
 C        -4.6587426777       -7.7046690711       -0.4713701914
 C        -4.5448616261       -6.4157478227       -1.4094382421
 O        -5.5361457257       -5.7609979489       -1.4161192532
 C        -3.1170274998       -6.0225730462       -2.1505852662
 C        -3.1418299815       -4.4596092477       -2.4741785705
 O        -4.0641853061       -4.0109635985       -3.1876382770
 C        -1.9906840674       -3.5922353165       -2.1429997061
 C        -1.8514017811       -2.1354940357       -2.7659655184
 C        -2.2331563821       -1.0952958737       -1.7865560746
 O        -2.2318107565       -1.3920369336       -0.5893005401
 C        -2.7846261688        0.3444349168       -2.1978317963
 C        -4.2967836111        0.0276981433       -1.8847466311
 O        -5.1597453097        0.1282059247       -2.7148426859
 C        -4.8583638584        0.0063908863       -0.3996376921
 C        -6.3236437256       -0.3334157033       -0.3374532342
 C        -6.7026180597       -1.8012980570       -0.8481076474
 O        -5.9110306713       -2.6599987926       -1.2232862545
 C        -8.2281227228       -2.1480593674       -0.7868140749
 C        -8.6880691224       -2.2060031944       -2.2686836626
 O        -8.4042951970       -3.0709947490       -3.0544560512
 C        -9.6512773144       -1.0318173267       -2.6977707610
 C        -9.9787276844       -1.0572984707       -4.2104851204
 C       -10.2572220007        0.3236819582       -4.9290729330
 O        -9.4039193436        1.1248688894       -4.7569347175
 C       -11.7471578958        0.5745868638       -5.5247896977
 C       -11.8410660175       -0.3502511919       -6.8737544170
 O       -11.7282432437       -1.5731179436       -6.7581272781
 C       -12.3131922804        0.3126386069       -8.1849034508
 C       -12.7783025212        0.1503618871       -4.3739704832
 C       -11.9078541923        2.1044486654       -5.6573900007
 C        -8.1670819490       -3.6428495753       -0.2032443905
 C        -9.2575468320       -1.2796903715        0.0520681097
 C        -2.4017518238        1.4681182300       -1.2845536004
 C        -2.6201076951        0.6199419592       -3.7124552359
 C        -1.9111663839       -6.4154237148       -1.2773415803
 C        -3.0760183883       -6.8678457316       -3.4865500706
 C        -9.2503504229       -8.9449027389        1.5467261380
 C        -8.2007289620      -10.2699821299       -0.3540882642
 C       -11.1625094326       -5.2204459032       -4.7727465406
 C       -10.1468230972       -7.5365914028       -4.9650076833
 C        -5.2638766353       -1.4992047019       -7.4431808373
 C        -7.5301802328       -2.3385195359       -8.1754689103
 C        -1.6535118424       -2.8519639300      -12.9330851866
 C        -2.4968656332       -0.7107176703      -11.8820353496
 C        -1.8925495088        3.9040971255      -17.7036849709
 C        -3.1318965598        2.0072460062      -18.6941868834
 C         2.0773304298       -0.7990007165      -21.0367875397
 C         3.3639298694       -1.2582570373      -18.8853212678
 C         9.3418457857        2.5582993199      -22.2091038854
 C         8.6646369729        4.4960381598      -20.5711383725
 C         2.7358817080        3.7184105373      -25.1583901549
 C         4.8297308369        4.2494815198      -26.5132048856
 H         1.9714912367        5.4894803244      -27.1330814699
 H         2.7174597882        6.9891161835      -27.5581689611
 H         1.2835363426        6.9320142795      -26.5892572122
 H         5.3516323780        6.7578039588      -23.9583397885
 H         6.3875865374        5.8141941795      -25.1674725828
 H         6.3648695398        5.9497557199      -21.8840412360
 H         7.7266751791        6.2855108893      -22.8924102964
 H         7.8151492594        0.7271782399      -20.9336539534
 H         6.5783418523        0.7918569637      -22.0433703658
 H         5.6789463016        1.1738726874      -19.1376035890
 H         6.2512361765       -0.4098859114      -19.8158603664
 H         2.1311015310        0.4340690236      -17.2521207170
 H         0.8925884362        0.0604172694      -18.2006918531
 H         0.9195911616        2.9968835149      -17.9015232904
 H         0.5570439232        1.9560648108      -16.5884695804
 H        -3.9616431604        0.4131574924      -16.8762863656
 H        -4.3586765633        1.7947164662      -15.8584636427
 H        -4.5653683965       -0.0200001760      -14.2284536021
 H        -3.1998118561        0.9895250124      -13.9734399968
 H        -3.2903402863       -3.2831648588      -10.8063820530
 H        -4.4075687823       -4.3597638808      -11.8358894728
 H        -6.3270054133       -3.3071757450      -11.1083731707
 H        -5.5918090527       -2.0032496037      -10.3430303984
 H        -5.5653992494       -5.7724446417       -6.9961266738
 H        -6.9810834461       -5.3460404903       -7.8240732946
 H        -6.9005344308       -5.7985121479       -4.8320982474
 H        -7.2710517614       -7.0708196195       -5.9221611246
 H       -11.2780997005       -6.7707990234       -2.1206073503
 H       -10.7149360307       -5.1054280221       -1.7947580239
 H       -10.5079360124       -6.6691679895        0.2131347269
 H        -8.8007724210       -6.1848650096       -0.2715595206
 H        -6.3699903713       -8.1507936389       -1.7250545385
 H        -5.9120265874       -9.5342649273       -0.6391076939
 H        -3.8677021296       -8.5109972062       -0.5905281768
 H        -4.6417750253       -7.3308116942        0.5747425799
 H        -1.1201033495       -4.1914672945       -2.3244546041
 H        -1.9613666022       -3.5696798997       -0.9721267525
 H        -2.5583055356       -2.0263985750       -3.6751120509
 H        -0.8427896747       -1.9896522648       -3.1667434707
 H        -4.6851062223        0.9505751238        0.0858837452
 H        -4.3393305637       -0.7885227132        0.1367201952
 H        -6.9106582422        0.3451180235       -1.0015782775
 H        -6.8544914765       -0.0740433952        0.5438143598
 H        -9.0077390874       -0.1815007540       -2.4397136213
 H       -10.6435200174       -1.0314206296       -2.1531825929
 H       -10.8597569007       -1.7119837035       -4.3242019290
 H        -9.1103961980       -1.4843973516       -4.8690968166
 H       -13.2717964661        0.7944050315       -8.0316898486
 H       -12.3572151490       -0.3343820461       -9.0803006621
 H       -11.6335275561        1.1125718952       -8.3501746156
 H       -12.7851010469       -0.9900237674       -4.2049739973
 H       -13.7039164647        0.5516543184       -4.6190647036
 H       -12.3836899290        0.6684099596       -3.5312642462
 H       -10.8978161452        2.5737187374       -5.7354927736
 H       -12.0884174909        2.4297958790       -4.6607603784
 H       -12.6416740633        2.4397429955       -6.3924083471
 H        -9.1957173382       -4.0265756615        0.0186595088
 H        -7.5802429542       -3.6362019539        0.7534330993
 H        -7.7264213726       -4.2593484145       -1.0357670587
 H       -10.1166973673       -1.8637378950       -0.0034934764
 H        -9.4278958132       -0.2771468214       -0.2753180502
 H        -8.9371262420       -1.1697223584        1.0477071634
 H        -3.0672957266        2.2734030600       -1.2642611906
 H        -1.4038204328        1.8621625747       -1.4942634278
 H        -2.3748832959        1.0078834891       -0.2955421481
 H        -2.8068795356        1.7014699416       -3.9248491673
 H        -3.3526719342        0.1286644342       -4.3986153753
 H        -1.6762630770        0.3976097290       -4.1352145005
 H        -2.0348803273       -7.5261682826       -1.0342092223
 H        -1.9151648582       -5.6889029756       -0.5028839832
 H        -0.9217073883       -6.3625819957       -1.7962804587
 H        -3.3783434721       -7.8517724267       -3.1593473055
 H        -2.0890636974       -6.9258868563       -3.8173698936
 H        -3.7633585877       -6.4562289917       -4.2359117084
 H        -9.5130886950       -7.9153323771        1.8415562461
 H        -8.7373483573       -9.3638357799        2.4061764168
 H       -10.1592528671       -9.6106156956        1.5768572178
 H        -8.0219640236      -10.4013052818       -1.4235634687
 H        -9.1184263887      -10.8762271665       -0.2971698351
 H        -7.4322095882      -10.8635845259        0.1821417057
 H       -11.7677885619       -5.6062877775       -5.5802449029
 H       -11.0491808702       -4.1606340843       -4.9424077290
 H       -11.8326713297       -5.3018538096       -3.8952958011
 H       -10.3293562286       -7.6621179284       -6.0799906894
 H       -11.0493508615       -7.9746640603       -4.3913514257
 H        -9.3135641691       -8.2203299647       -4.7684388824
 H        -5.7699720228       -0.8605780827       -6.7108007518
 H        -5.2360149453       -1.1285726659       -8.4760876326
 H        -4.1966733459       -1.7047826282       -7.0747137420
 H        -8.2113015015       -3.1374650091       -8.3500795350
 H        -7.5236727733       -1.7388873538       -9.0789646614
 H        -7.8294191076       -1.7371553848       -7.3232339996
 H        -1.4399444501       -3.1956568900      -12.0097021492
 H        -0.6393626096       -2.4541631691      -13.2578603933
 H        -1.7432089451       -3.6279946569      -13.6564025377
 H        -3.4046349561        0.0368953111      -11.8770791084
 H        -1.5873511420       -0.3396203318      -12.3354863709
 H        -2.3391812027       -1.1222498384      -10.9058924398
 H        -0.8886992085        4.1773123794      -17.1893660086
 H        -2.7830626893        4.3515206359      -17.4118106598
 H        -1.7794594185        4.0691347660      -18.7552332494
 H        -3.3631094834        0.9935860388      -18.9545488827
 H        -2.9044469529        2.3203905966      -19.7120492515
 H        -4.0767316251        2.4185517373      -18.4678234836
 H         2.3803179135       -1.8145754973      -21.1739146274
 H         2.0746301135       -0.1612698391      -21.9839930573
 H         1.0432120022       -0.7331691231      -20.6419155451
 H         4.0726027272       -1.9863353878      -19.1251014037
 H         2.3568204951       -1.7885909699      -18.8214136244
 H         3.5861960657       -1.0464674150      -17.8380815807
 H         9.2905567585        2.2920998188      -23.2382708459
 H         9.4344508860        1.6294289044      -21.6576037101
 H        10.2706593490        3.0672047386      -21.9811110305
 H         9.4825031368        5.0188918449      -20.9681192993
 H         9.0772437689        3.9882626528      -19.7077633230
 H         7.7782075047        4.9870425211      -20.2912489714
 H         2.3446231950        3.2876610206      -26.0761603326
 H         1.8213888943        4.1955137464      -24.7196221685
 H         2.9090832279        2.8778238701      -24.4634835404
 H         5.5664998240        4.9979995407      -26.8274766936
 H         4.1774000726        3.8728889188      -27.3944994733
 H         5.4395945715        3.5006265681      -26.0665512968
 Na       -6.3392314752       -4.1902231450       -3.0483407483
 Na        3.6425023674        2.7028887934      -21.7910418011
