232

 C         2.0608212382        6.3011259760      -26.7562719382
 C         3.2059393944        6.3161228887      -25.7249537597
 O         3.6208671098        7.3155090293      -25.1887808434
 C         3.9515143420        4.8823062204      -25.3571627078
 C         4.7861557600        4.9414730655      -24.1104982965
 O         4.4853388182        4.1773889506      -23.1261084303
 C         5.8906742304        5.9593466446      -23.8110351583
 C         6.7896351571        5.4354445370      -22.7838809642
 C         7.4643877622        4.1532664479      -22.9689865690
 O         7.5147670045        3.6530168858      -24.1040360833
 C         8.1583598624        3.4043050623      -21.7389226763
 C         6.8860599755        2.6515334411      -21.1034665492
 O         5.9283657409        3.2069710027      -20.7089226997
 C         6.9422649241        1.0710881257      -20.9729557831
 C         5.8421680905        0.4987029367      -20.0204714244
 C         4.4861588167        0.2929113132      -20.6713620105
 O         4.1952394298        0.6438607674      -21.7998220134
 C         3.1799058257       -0.2975953408      -19.8762149298
 C         2.3260461954        0.9896368127      -19.3290524186
 O         2.2401556907        2.0125226122      -19.9976945131
 C         1.6189741429        0.8915175984      -17.9888838800
 C         0.5372788861        1.9877453336      -17.6744417872
 C        -0.8414012692        1.7377858226      -18.3524206080
 O        -0.8913181039        1.1095312274      -19.3997469315
 C        -2.2279523749        2.3491803252      -17.6005690663
 C        -2.4511706453        1.6082055251      -16.2239703925
 O        -1.6555765788        2.0812644176      -15.3953209533
 C        -3.6659729768        0.7539909565      -16.0579770634
 C        -3.9340275931        0.1690235967      -14.6711886590
 C        -3.0993739581       -1.0808447233      -14.4428105800
 O        -2.7350099110       -1.5987168388      -15.4697238421
 C        -2.8702808799       -1.6232387901      -13.0018186114
 C        -4.2417618775       -2.1964164569      -12.3748191797
 O        -5.2911814740       -2.0253450618      -12.9995281623
 C        -4.1775486830       -3.2421933391      -11.2062821196
 C        -5.4338832077       -2.9411251374      -10.3670159125
 C        -5.3437997558       -3.5867293847       -9.0132771905
 O        -4.5255769927       -4.4988903426       -8.8472192551
 C        -6.0103135174       -2.8393253890       -7.7298693132
 C        -6.1755921653       -3.7975162802       -6.5673235446
 O        -6.0448725587       -3.3179848151       -5.4310592597
 C        -6.5986047691       -5.1660814268       -6.7816280060
 C        -7.4261941641       -5.9181323347       -5.7498333361
 C        -8.8169058557       -5.3108918961       -5.5266911658
 O        -9.0287917694       -4.2905854332       -6.1681150980
 C        -9.8672532298       -5.8856305656       -4.6102329367
 C        -9.4265624819       -5.8609463767       -3.1197676786
 O        -8.2296694342       -5.7346600666       -2.8558029866
 C       -10.4034327402       -6.1151252922       -1.9634081723
 C        -9.6680726966       -6.6716955738       -0.6731398300
 C        -9.2105244789       -8.0906716197       -0.8462508159
 O        -9.4407012118       -8.5798588089       -1.9981196577
 C        -8.3201569790       -8.8608029661        0.2262141088
 C        -6.9700343107       -8.0969744835        0.4074551284
 O        -6.8157972339       -7.2678856565        1.2661600590
 C        -5.9098850306       -8.4648611148       -0.7174728274
 C        -4.4827535189       -7.7241401474       -0.7725696546
 C        -4.5041241616       -6.4232164580       -1.5152918946
 O        -5.5327835527       -5.7398124996       -1.5451370800
 C        -3.0814050252       -5.8965381216       -2.1296078060
 C        -3.0480651577       -4.3864379801       -2.5167478696
 O        -3.8991857347       -3.9714930465       -3.2524280909
 C        -1.8326710773       -3.5026540139       -2.1799417225
 C        -2.0241301252       -2.1382660862       -2.7831319553
 C        -2.2885061439       -1.0386085883       -1.8153386599
 O        -1.9712524789       -1.1914222301       -0.6492214163
 C        -2.9876806440        0.2045866809       -2.3396269066
 C        -4.4845228950       -0.0467668087       -2.0768540518
 O        -5.2673159684       -0.0719279544       -2.9938339165
 C        -4.8288458639       -0.3969850721       -0.6502037814
 C        -6.2995268005       -0.4905833264       -0.3635523649
 C        -6.7725975769       -1.8826904915       -0.7693730939
 O        -5.9886161577       -2.7305540368       -1.2360343850
 C        -8.3143806084       -2.2451780464       -0.6182635045
 C        -8.8951937120       -2.3256314885       -2.1882120349
 O        -8.4070173455       -3.1279635072       -2.9696855460
 C        -9.5856765172       -1.0499619886       -2.7769876423
 C        -9.7957672841       -1.2126432297       -4.3031764423
 C       -10.1598639478        0.1306503532       -4.8474346861
 O        -9.3445304313        1.0843928476       -4.7135374944
 C       -11.6745104852        0.3903462312       -5.3723279813
 C       -11.7875567196       -0.3774273119       -6.6902013697
 O       -11.7861542840       -1.5611030974       -6.6025441906
 C       -11.8512900102        0.4116290614       -7.9999323224
 C       -12.8024103214       -0.2589397359       -4.4113038773
 C       -11.7746414024        1.9258846810       -5.6315547797
 C        -8.4416068244       -3.7010008733        0.0001773476
 C        -8.9202552286       -1.1961184455        0.3467856872
 C        -2.2023058267        1.4217487744       -1.6539061887
 C        -2.7457208982        0.4750227404       -3.8870063541
 C        -1.9181093288       -6.2561806098       -1.1662385266
 C        -3.0588449170       -6.6951234375       -3.4666541408
 C        -9.1182089029       -9.0007228265        1.6091422517
 C        -8.1379045960      -10.3687301202       -0.2848068740
 C       -11.2382627251       -5.2679265830       -4.9342057646
 C       -10.0002694157       -7.4061208289       -4.9501470899
 C        -5.0742484758       -1.6050969128       -7.3167811817
 C        -7.4097163548       -2.4363008899       -8.0901587132
 C        -1.7620215008       -2.6699416708      -13.0203449910
 C        -2.4523635887       -0.4240190387      -12.0808411007
 C        -2.0227421976        3.8900189851      -17.3988986018
 C        -3.3646385890        2.1576954906      -18.6056927256
 C         2.2555502056       -0.9598432884      -20.8873917671
 C         3.6063003397       -1.2237153887      -18.7823738488
 C         9.3841576098        2.5147882676      -22.1979762555
 C         8.6058222285        4.5142815794      -20.7397810734
 C         2.8143649567        3.7934174031      -25.2755256977
 C         4.7956068947        4.6324488042      -26.7386145634
 H         1.4945763208        5.3317331994      -26.9260839769
 H         2.1495314584        6.8809878222      -27.6302261994
 H         1.3217872154        6.9400078522      -26.2124417402
 H         5.4028280005        6.8153651494      -23.3977203652
 H         6.4253212317        6.1597827593      -24.7029810784
 H         6.3032937790        5.2328346575      -21.8514947117
 H         7.3994116232        6.3379101939      -22.4695770934
 H         7.9110886217        0.5919914762      -20.6552175245
 H         6.7960814244        0.5279459712      -21.9656882188
 H         5.6883729699        1.0775351254      -19.1847876905
 H         6.3472245407       -0.5069240248      -19.7274754686
 H         2.4524537706        0.8749075450      -17.2485345363
 H         1.2726417200       -0.1820871189      -17.8312834468
 H         1.0698276476        2.9392237084      -17.8691311751
 H         0.3253588548        1.9559932047      -16.5295414624
 H        -3.4458888386       -0.0409481679      -16.7982267118
 H        -4.4833173994        1.3202374991      -16.4936536979
 H        -4.9780642948       -0.1999136379      -14.6332489514
 H        -3.9107176465        0.9134197063      -13.8640600308
 H        -3.2746529030       -2.8897307696      -10.5906473987
 H        -4.0718802189       -4.1695490500      -11.6413301906
 H        -6.2811011852       -3.3686375184      -10.9313566629
 H        -5.6842343752       -1.8554430775      -10.3044619431
 H        -5.6751217928       -5.7004318880       -7.0797853456
 H        -7.1137279323       -5.2350650785       -7.7722676511
 H        -6.8450089215       -6.0528985578       -4.7596694884
 H        -7.5716963623       -6.9579328882       -6.1194245864
 H       -11.2125792293       -6.7499695484       -2.2339413303
 H       -10.8078739512       -5.1608774950       -1.5774781066
 H       -10.2554579776       -6.4929158952        0.1949541969
 H        -8.7769327007       -6.1129863061       -0.5917315808
 H        -6.4576521105       -8.1239858157       -1.5634803952
 H        -5.9732346203       -9.5133890809       -0.7728731786
 H        -3.7578528570       -8.3793946360       -1.1794358415
 H        -4.1558768190       -7.3900952489        0.2013742926
 H        -0.9925462731       -4.0210423036       -2.7946187743
 H        -1.3338696615       -3.3962771141       -1.2372020839
 H        -2.5730253004       -2.0925897157       -3.6578900764
 H        -1.0049469779       -1.9139883166       -3.0655647849
 H        -4.4312761615        0.4787646231       -0.0651022892
 H        -4.4445589249       -1.3632111385       -0.2468608204
 H        -7.0240813405        0.2357572608       -0.6726681922
 H        -6.5135729409       -0.4535659034        0.7465554372
 H        -8.8840035473       -0.2181640414       -2.5030210902
 H       -10.5124213733       -1.0378942494       -2.2588775165
 H       -10.5612629395       -1.8806613863       -4.6926913447
 H        -8.8657334361       -1.5031087214       -4.6277416867
 H       -12.8782458916        0.8179869907       -7.9331624699
 H       -11.8201428904       -0.1791322406       -8.8682058617
 H       -11.1328469308        1.3005434238       -8.1188779546
 H       -12.5102623298       -1.2254388650       -4.3130723278
 H       -13.8253856152       -0.2166386089       -4.8512857884
 H       -12.7412233688        0.2666058850       -3.4632702900
 H       -11.2004350227        2.1671619124       -6.5207437912
 H       -11.1934099159        2.4908072225       -4.8693201191
 H       -12.8060635577        2.2384095443       -5.8359164488
 H        -9.4686637963       -3.7511611158        0.1597181941
 H        -7.9314999660       -3.7318365000        0.9142782521
 H        -8.1042292448       -4.4467192652       -0.6677853083
 H       -10.0187786885       -1.4180954526        0.4623144927
 H        -8.7663506135       -0.1747892416       -0.0105656469
 H        -8.4486574855       -1.2251340913        1.3977803053
 H        -2.8122072167        2.3949480459       -1.7369172392
 H        -1.2472836285        1.6233030878       -2.1739759537
 H        -2.0690506148        1.2493409416       -0.5970738178
 H        -3.1200590135        1.4293786439       -4.1344182210
 H        -3.2745573067       -0.1459712645       -4.5495221267
 H        -1.7024774940        0.2342386858       -4.2032489360
 H        -1.9460812812       -7.3084271570       -1.1527224105
 H        -1.9440997658       -5.6322845508       -0.2514872343
 H        -0.9877448779       -6.1323698369       -1.6663921582
 H        -3.3233222829       -7.7282153547       -3.1806021858
 H        -2.0338985700       -6.6458820591       -3.9801886336
 H        -3.8139224707       -6.2188620796       -4.0703190039
 H        -9.0999338012       -8.1823891013        2.3378216212
 H        -8.7386850949       -9.9150466438        2.1337991441
 H       -10.1866269173       -9.2322174169        1.4790640901
 H        -7.7471185430      -10.5025394174       -1.3106119803
 H        -9.0238432833      -10.9750952714       -0.3472515010
 H        -7.4857515489      -10.9240880766        0.3499434824
 H       -11.3005365193       -4.9318527568       -5.9634075067
 H       -11.5013225631       -4.4233647031       -4.2972921942
 H       -12.1009413542       -5.8863305551       -4.8458257264
 H       -10.2926706169       -7.5305403461       -5.9189213262
 H       -10.6280803665       -7.9347579535       -4.3472349870
 H        -9.0225526349       -7.8668703610       -4.8493963672
 H        -5.0300936502       -1.6746673498       -6.2153452343
 H        -5.4168320503       -0.6891931322       -7.7632345699
 H        -4.0695311268       -1.8503136358       -7.5343245691
 H        -8.0861596992       -3.3307425631       -8.3006209209
 H        -7.2923642493       -2.0127155126       -9.1353479412
 H        -7.8966135867       -1.6680569346       -7.4392248326
 H        -1.4171390513       -3.0970304606      -12.0432929032
 H        -0.8376754770       -2.1934733181      -13.2942847016
 H        -1.9165497528       -3.5105052542      -13.7651117723
 H        -3.2668484711        0.0401815256      -11.7097834485
 H        -1.6396556064        0.1112711797      -12.6060617097
 H        -2.0764373401       -0.9930966136      -11.2068353706
 H        -1.4283817569        3.8981633422      -16.5528115477
 H        -3.0781101443        4.3005812703      -17.3231253536
 H        -1.5228469266        4.3805294950      -18.2766670979
 H        -3.3978215924        1.1714830651      -19.0420025906
 H        -3.3624472891        2.6696537546      -19.5182134052
 H        -4.3936762257        2.3203044432      -18.3067230879
 H         2.6415941165       -1.9905702323      -21.0807228576
 H         2.2204264459       -0.3803128240      -21.7900423031
 H         1.2715649748       -0.9391327594      -20.4907545185
 H         4.3021277629       -2.0277552939      -19.1866561593
 H         2.9241433048       -1.6272290854      -18.0966517794
 H         4.3040457289       -0.6825353869      -18.1105406613
 H         9.4795198469        2.3641145610      -23.2881310066
 H         9.3435865827        1.5169681586      -21.7749803775
 H        10.3613643433        3.0246389029      -21.9498879675
 H         9.2594207328        5.2239654638      -21.2615654330
 H         9.4523068829        4.1023121127      -20.1779571208
 H         7.7231472295        4.8097507849      -20.1078580006
 H         2.3763622034        3.6785002959      -26.2549146789
 H         2.0372137598        3.8288013648      -24.6074420574
 H         3.2113032424        2.7836399355      -25.1658600086
 H         5.6466414306        5.2866284709      -26.8481209411
 H         4.0852583394        4.7987783660      -27.4814363088
 H         5.1261271806        3.5385771450      -26.8737460931
 Na       -6.3668066134       -4.2350956566       -2.9747145724
 Na        3.7691550651        2.8816592296      -21.5370309296
