232

 C         2.0043427974        6.3521308432      -26.6787977621
 C         3.0652329431        6.4000401299      -25.6797699576
 O         3.5919780040        7.3793912347      -25.3048592722
 C         3.8418083210        5.0058486136      -25.4952987850
 C         4.7157539025        4.9725874556      -24.1581378386
 O         4.5314258208        4.0775488708      -23.3226382895
 C         5.8517795268        5.9376863999      -23.8417406909
 C         6.7012900754        5.4371880285      -22.6654788647
 C         7.4433426663        4.0739982527      -23.0729449890
 O         7.5807249236        3.6030455699      -24.1810974049
 C         8.1084068507        3.3083630360      -21.7929452802
 C         6.9274341134        2.5512944351      -21.0927007122
 O         5.9760350515        3.2215075852      -20.6473714947
 C         6.9193926617        1.0251036339      -20.9103052149
 C         5.8090357840        0.4780943064      -20.0050089540
 C         4.3993749121        0.4191204469      -20.6529649669
 O         4.2773819368        0.7541211551      -21.8403262770
 C         3.2773836750       -0.2083842823      -19.7897454917
 C         2.2557533798        1.0419191432      -19.3147056701
 O         2.0843425035        1.8805011176      -20.1258663812
 C         1.5562846745        0.9531515870      -17.9753687127
 C         0.3875570206        1.9670339607      -17.6272882096
 C        -0.9642088387        1.6458615711      -18.2764085447
 O        -1.1167277697        1.0369237637      -19.2879032435
 C        -2.1536667858        2.3184580395      -17.6445514427
 C        -2.4835629087        1.6771768293      -16.2328233406
 O        -1.7750348979        1.9345298648      -15.2915740005
 C        -3.6695500186        0.7881364333      -16.1941986993
 C        -4.0390476950        0.3165544670      -14.7828717121
 C        -3.2272952612       -0.9891241833      -14.5136369276
 O        -2.7975623276       -1.6815426994      -15.4004026208
 C        -2.9325708960       -1.5080621883      -13.0572748751
 C        -4.2082926680       -2.2125577220      -12.5736334608
 O        -5.3132558155       -2.0117391035      -13.0317311245
 C        -4.1215544790       -3.0003398515      -11.1976873831
 C        -5.3607812687       -2.8370293192      -10.2965948049
 C        -5.2130702655       -3.6017062334       -8.9133587650
 O        -4.5049169293       -4.6033954849       -8.7266551751
 C        -5.9942268861       -2.8900150891       -7.7282541278
 C        -6.2674798569       -3.8044512824       -6.3597511677
 O        -6.1558487051       -3.3721103232       -5.2619016857
 C        -6.5481077365       -5.2437651636       -6.8136978911
 C        -7.3927984033       -5.9104306961       -5.7279325835
 C        -8.8007096934       -5.1560795698       -5.5722138774
 O        -9.0225394805       -4.1556436191       -6.1549477839
 C        -9.8869782507       -5.8354297346       -4.5642893715
 C        -9.4182320529       -5.8436308124       -3.0629696733
 O        -8.2674567077       -5.6993447116       -2.8404017621
 C       -10.3846803969       -6.0905208031       -1.9010561678
 C        -9.6613115120       -6.7983275366       -0.6674830410
 C        -9.1643617669       -8.1901318536       -1.0075827387
 O        -9.3129188290       -8.8305998215       -2.0988980830
 C        -8.3271869162       -8.8861205403        0.1212465507
 C        -6.9401966909       -8.0346270855        0.2517900001
 O        -6.7178974662       -7.2941155821        1.2139356233
 C        -5.8610540907       -8.3958894126       -0.7769529379
 C        -4.5455983066       -7.6923421092       -0.7372942994
 C        -4.5168549218       -6.3579355844       -1.3814034785
 O        -5.5346255603       -5.7954219553       -1.6115118147
 C        -3.1237235583       -5.9350636811       -2.0748307507
 C        -3.0337461528       -4.4076758679       -2.5286919265
 O        -3.9574773222       -3.9639983192       -3.2404485593
 C        -1.7620764106       -3.5907316377       -2.3184610723
 C        -1.8835266660       -2.1691917638       -2.9313535168
 C        -2.1536939307       -1.0479757785       -1.8745406173
 O        -1.8479306677       -1.0445180121       -0.6634804059
 C        -2.9543325952        0.1575035658       -2.5588043411
 C        -4.4555284044       -0.0373854331       -2.1870750005
 O        -5.3284202431       -0.0978338017       -3.0075209176
 C        -4.6794866030       -0.3817460242       -0.6636623458
 C        -6.2618623386       -0.5204986252       -0.2859957854
 C        -6.7678042157       -1.8744457919       -0.6824155730
 O        -6.0530292592       -2.6988855407       -1.2759608149
 C        -8.3398390894       -2.1592055489       -0.6083486061
 C        -8.7094489872       -2.2194483083       -2.0985254397
 O        -8.4816950353       -3.1618495879       -2.7594928752
 C        -9.5918900287       -1.1419210514       -2.6868905203
 C        -9.7108187683       -1.2658588489       -4.2092944929
 C       -10.2203017336        0.1646288298       -4.7187630120
 O        -9.3736549906        1.0238085216       -4.7741848265
 C       -11.5828257277        0.3679015667       -5.3012537313
 C       -11.7072652659       -0.4605898021       -6.7033238786
 O       -11.7830735350       -1.6769814514       -6.6348028183
 C       -11.6662616364        0.3354076725       -7.9849712440
 C       -12.6914155324       -0.2240330849       -4.4192701195
 C       -11.8398056633        1.9471004351       -5.4133143139
 C        -8.5548181768       -3.6519652171       -0.0419185245
 C        -9.0519167548       -1.1630051923        0.3156253027
 C        -2.3397039630        1.3883914968       -1.7346487651
 C        -2.7975553333        0.3378905778       -4.0328358194
 C        -1.9214885024       -6.2691993152       -1.1307391154
 C        -2.9641762990       -6.6811503710       -3.4478114714
 C        -8.9367667242       -8.8395437850        1.5710594866
 C        -8.2012610160      -10.3293634562       -0.3223416164
 C       -11.3712896545       -5.2801639760       -4.7359139379
 C        -9.8773236566       -7.4385159594       -4.9683682186
 C        -5.0258546609       -1.6917796748       -7.3743560467
 C        -7.4308359580       -2.3405119499       -8.1387497214
 C        -1.8511576535       -2.6121720374      -13.0953515740
 C        -2.4529949880       -0.3210624916      -12.1154675537
 C        -2.0045811424        3.8148069831      -17.2808377724
 C        -3.3385630037        2.1647250717      -18.6605996769
 C         2.2824370996       -1.1155678487      -20.7361067392
 C         3.8628849602       -1.1797303223      -18.6835841191
 C         9.2878313289        2.5070338823      -22.2351065826
 C         8.5632628725        4.4074581468      -20.6876606309
 C         2.9764464907        3.7469699774      -25.2995115431
 C         4.8712144180        4.8054683574      -26.6256662280
 H         1.6567570625        5.3727927033      -26.9180691277
 H         2.3185792150        6.9586845618      -27.5703278210
 H         1.1235423990        6.9762727140      -26.4280167814
 H         5.3694051778        6.8234659035      -23.6029835721
 H         6.4915599586        6.0106541936      -24.7309682160
 H         6.1894372296        5.1905041518      -21.7615705111
 H         7.2453173839        6.3079880206      -22.3192944503
 H         7.8639314687        0.6740689060      -20.3818685020
 H         7.0314455062        0.5575831718      -21.8263992333
 H         5.7984395399        1.1186928863      -19.1658333732
 H         6.1894375601       -0.5155380480      -19.6778153036
 H         2.3816630790        0.9082818863      -17.1946168214
 H         1.2888426462       -0.1217568026      -17.9214246437
 H         0.8637480229        2.8901946095      -18.0166997561
 H         0.2730295852        2.1282737940      -16.5147719698
 H        -3.3598440000       -0.0422379659      -16.8122685695
 H        -4.5376214459        1.2649027492      -16.7689706171
 H        -5.1268140727        0.2695435417      -14.6889288194
 H        -3.7232374289        0.9581006125      -14.0308174216
 H        -3.3042478536       -2.6750087849      -10.5923265427
 H        -3.9401703848       -4.0165196079      -11.6385706281
 H        -6.2623712420       -3.2786751152      -10.8445987337
 H        -5.6362251304       -1.7582990870      -10.1395763016
 H        -5.5541734889       -5.7274788400       -7.1399535434
 H        -7.0392671514       -5.2985927104       -7.8058782392
 H        -6.8924701063       -5.8442655808       -4.7858397371
 H        -7.5385701664       -6.9467741583       -5.8928983379
 H       -11.1386123350       -6.7617790756       -2.2958818696
 H       -10.8442781906       -5.2045719688       -1.4941159770
 H       -10.3092908236       -6.9587646968        0.1610848342
 H        -8.8739464127       -6.1881997916       -0.3462241439
 H        -6.3239217618       -8.4577308609       -1.7554328529
 H        -5.7819382120       -9.4607407781       -0.4561486714
 H        -3.8454366495       -8.3543247019       -1.3447326505
 H        -4.2199721065       -7.6875775764        0.2415625656
 H        -0.8949746436       -4.1778053494       -2.5108880218
 H        -1.6757444754       -3.3955434975       -1.2814223195
 H        -2.9109484653       -2.1621473234       -3.4517384906
 H        -1.1935576793       -1.9281826467       -3.7081073383
 H        -4.2243595305        0.4919867524       -0.1406625227
 H        -4.2371585590       -1.3120428925       -0.3544587461
 H        -6.9663220373        0.0665522591       -0.8668895315
 H        -6.6687513049       -0.2856020284        0.7151205858
 H        -9.0811119618       -0.2664620000       -2.4034168162
 H       -10.5975481962       -1.2606647328       -2.2468428853
 H       -10.4164335562       -1.9357198377       -4.5882036187
 H        -8.6964614419       -1.5285668947       -4.5418926224
 H       -12.5160503896        1.0913874240       -8.0503551562
 H       -11.8211037529       -0.4103127482       -8.7862480316
 H       -10.6524843816        0.8178160948       -8.0923225260
 H       -12.4650106001       -1.3550064701       -4.3892343121
 H       -13.6249753561       -0.0830870692       -4.9462719382
 H       -12.7062724717        0.2349054024       -3.4253639363
 H       -11.3325633616        2.3161117719       -6.3362293024
 H       -11.4062279050        2.4628707073       -4.5870777004
 H       -12.8815062482        2.1191555448       -5.5901589680
 H        -9.5574740561       -3.8039847376       -0.3210408471
 H        -8.4209840700       -3.6108383542        1.0086729711
 H        -7.8577699817       -4.3882045144       -0.4750968878
 H       -10.1384371494       -1.3294990876        0.3621108184
 H        -8.8383075993       -0.0863000544        0.1137870823
 H        -8.6308010037       -1.3799516320        1.3683051703
 H        -2.9116241949        2.3138323239       -1.8985647879
 H        -1.2503089142        1.6529181644       -1.8368255952
 H        -2.6043038539        1.1621190222       -0.7382929884
 H        -3.4568913538        1.1446568763       -4.4114107526
 H        -3.0879712498       -0.5110274023       -4.6342861165
 H        -1.7610741822        0.3430113906       -4.3155540784
 H        -1.8046789968       -7.3856776230       -1.1838232095
 H        -2.0603805119       -5.8007997004       -0.2292504176
 H        -1.0365181074       -5.9871713092       -1.5953404184
 H        -2.8049558043       -7.7672339562       -3.2370556335
 H        -2.0991346951       -6.2270482699       -3.9703285291
 H        -3.8531660455       -6.4460899857       -4.0120136304
 H        -8.7082738335       -7.9424316178        2.0740491334
 H        -8.6180228607       -9.6481422561        2.2016539266
 H       -10.0584585206       -8.8074187255        1.5859803402
 H        -7.7261965438      -10.6131427280       -1.2686884086
 H        -9.1236350762      -10.8709775456       -0.3397306158
 H        -7.6502310467      -10.8059327956        0.4642485405
 H       -11.5104353636       -4.6716222940       -5.6284936865
 H       -11.7986266445       -4.7375759670       -3.8963166236
 H       -12.1396549147       -6.0560953598       -4.9196244800
 H       -10.1145881611       -7.6547823184       -5.9833345850
 H       -10.5919541871       -7.9885553678       -4.3427406151
 H        -8.9255157517       -7.8496610775       -4.6998240224
 H        -4.9143179875       -1.7731314581       -6.3411541811
 H        -5.4688734814       -0.8052744752       -7.6860340483
 H        -3.9673394127       -1.8113177688       -7.6723605787
 H        -8.1272528949       -3.1345048450       -8.4754074222
 H        -7.3864918815       -1.5975972827       -8.9926235354
 H        -7.8349946046       -1.8003831642       -7.2492934764
 H        -1.6258981307       -3.0655155764      -12.2079280924
 H        -0.7624003719       -2.2688389250      -13.4359032100
 H        -2.1906773556       -3.4181580762      -13.8238411995
 H        -3.3010192706        0.2282627521      -11.6961125809
 H        -1.6808520150        0.1508819189      -12.7126391533
 H        -2.0749651744       -0.7588977772      -11.2941221368
 H        -1.3818423796        3.7829011953      -16.3378602248
 H        -2.9768734266        4.0891419233      -17.1386976454
 H        -1.5837660176        4.4158758365      -18.0701050262
 H        -3.6348743755        1.1976884133      -19.1187334142
 H        -3.3343195480        2.7218907598      -19.6042512980
 H        -4.2891515938        2.5297475166      -18.2737334805
 H         2.8986471660       -1.8612498925      -21.1287298271
 H         2.0300296787       -0.4229924082      -21.5901574285
 H         1.3975694908       -1.4269337893      -20.2836266274
 H         4.1483338630       -2.0728728821      -19.1809847338
 H         3.0325941927       -1.4195998560      -17.9759759622
 H         4.6997823860       -0.9858305381      -18.0121420050
 H         9.1914294837        2.2574068260      -23.3062966214
 H         9.5550895014        1.5550401055      -21.7484315102
 H        10.1459210270        3.2681904164      -22.3265123337
 H         9.3259562283        5.0375428644      -21.0580762103
 H         9.2423466609        3.8822852281      -19.9739316310
 H         7.6092198559        4.8067105081      -20.1960937222
 H         2.2626555169        3.4815819644      -26.0489038517
 H         2.3959751465        3.7757143923      -24.3985769124
 H         3.5332926795        2.7754830023      -25.2447921932
 H         5.6700218233        5.4443068740      -26.5055368198
 H         4.2662175913        5.0770194708      -27.5077617940
 H         5.1572579835        3.7652747967      -26.8187667053
 Na       -6.3354625193       -4.1912632179       -3.1716983020
 Na        3.8270927556        2.9604681613      -21.3926026016
