232

 C         1.8514426772        6.4084634510      -26.6790684048
 C         3.1742494736        6.3841568329      -25.7744777100
 O         3.5608098934        7.4434389127      -25.2638523249
 C         3.8610237072        5.0218729856      -25.4879174874
 C         4.6661945436        4.9125006156      -24.0833755221
 O         4.4681124134        3.9587084629      -23.4063299569
 C         5.8527489061        5.9730798766      -23.9506534971
 C         6.6831312581        5.3921308547      -22.7368703706
 C         7.4132195403        4.0625109612      -22.9818467670
 O         7.5796158483        3.6970562775      -24.0832454421
 C         8.0701782586        3.2961807664      -21.8264168752
 C         6.9410719764        2.4943588881      -21.1185257412
 O         6.0159488296        3.2175656024      -20.5600458970
 C         6.9799862380        1.0137607450      -20.8958057443
 C         5.8583095759        0.4584175771      -19.9778430095
 C         4.4281250112        0.3953707015      -20.6395413634
 O         4.2445616889        0.8309052001      -21.7713826563
 C         3.2928414189       -0.1462303927      -19.7987235747
 C         2.2397944360        0.9301712045      -19.3873248549
 O         1.9894569108        1.8664115404      -20.1220789713
 C         1.4945191648        0.8835040294      -17.9820122153
 C         0.3951654676        1.9313912804      -17.7266014523
 C        -0.9695440346        1.6619001942      -18.3207808616
 O        -1.1189567601        0.8286937391      -19.1948878255
 C        -2.2580705062        2.4549719619      -17.5857478372
 C        -2.5418876169        1.6820108107      -16.2807988981
 O        -1.8893948033        1.7330552308      -15.2629111442
 C        -3.8352184793        0.7068234004      -16.2510958630
 C        -4.0060134871        0.2625433514      -14.7919001365
 C        -3.2341935596       -0.9840050376      -14.5537784064
 O        -2.8892988813       -1.7269149286      -15.4635801318
 C        -2.9976380641       -1.4755083663      -13.0548036106
 C        -4.3346764624       -2.0624003957      -12.4633212781
 O        -5.3327365034       -2.0023512288      -13.0990941537
 C        -4.0565942882       -2.8828918734      -11.0723850537
 C        -5.2534980582       -2.8493515900      -10.1704680197
 C        -5.2133765749       -3.5644923409       -8.8350329500
 O        -4.5817450542       -4.5465750964       -8.6694982030
 C        -5.9296120844       -2.8259910679       -7.6559116937
 C        -6.1889097535       -3.8196333831       -6.5240256395
 O        -6.2410808809       -3.3682765304       -5.3901455558
 C        -6.6258975798       -5.3022774194       -6.7079002683
 C        -7.5608747906       -5.8811518573       -5.6275962262
 C        -8.8357539500       -5.1464229271       -5.4926893394
 O        -9.0673158521       -4.0933414971       -6.0707297478
 C        -9.8602826296       -5.9186878536       -4.5444928009
 C        -9.3516137716       -5.9088833567       -3.0805261139
 O        -8.1768480667       -5.7471778092       -2.7538069720
 C       -10.4171663150       -6.1732205485       -1.9959394127
 C        -9.7679963574       -6.9060501847       -0.7999685068
 C        -9.1336090821       -8.2762533697       -1.0999343696
 O        -9.2290323353       -8.8485854413       -2.0936382703
 C        -8.2608096887       -8.9216663878        0.1452096715
 C        -6.8766589478       -8.1764778673        0.1847317309
 O        -6.6703281181       -7.3294696003        1.0042539075
 C        -5.7547873374       -8.5255753629       -0.8843367790
 C        -4.4879530628       -7.7595889438       -0.6335522515
 C        -4.4946805541       -6.3521657825       -1.5040974805
 O        -5.5224799603       -5.7515127137       -1.6785599417
 C        -3.1087287890       -5.9203676622       -2.0761756075
 C        -3.0606631628       -4.4338368099       -2.5394727756
 O        -3.9968658507       -3.9376867720       -3.1714097742
 C        -1.8034723786       -3.6906907896       -2.2950283864
 C        -1.8202155979       -2.2810298895       -2.9630477340
 C        -2.0956357183       -1.0097438513       -2.0943869025
 O        -1.7162123365       -1.0890014649       -0.9522591096
 C        -2.8901496136        0.1459347045       -2.5938496168
 C        -4.4507419014       -0.1350631860       -2.1138224217
 O        -5.3035914734       -0.0801986837       -2.9616923033
 C        -4.6547080026       -0.3042033574       -0.6587834665
 C        -6.1764010554       -0.4821143783       -0.3152341365
 C        -6.7571722484       -1.8671406920       -0.7463866986
 O        -6.0362658431       -2.6875805353       -1.2461969776
 C        -8.2870011343       -2.1295695584       -0.4507283336
 C        -8.7610872659       -2.1840948843       -2.0112225054
 O        -8.4585669650       -3.1666729300       -2.6640283752
 C        -9.7272248930       -1.0333355116       -2.5766328570
 C        -9.7192894852       -1.2324835977       -4.0965471337
 C       -10.1487570026        0.1967155120       -4.8239609976
 O        -9.3403874971        1.0504492992       -4.7941701169
 C       -11.6149857902        0.2946323844       -5.3245121393
 C       -11.6071346763       -0.4534647017       -6.6831303597
 O       -11.7674403048       -1.6815086341       -6.6333134117
 C       -11.4575324798        0.2607479303       -8.0121484051
 C       -12.6751066968       -0.2407731253       -4.2746985024
 C       -11.9129862975        1.8238563316       -5.3009811460
 C        -8.5780325977       -3.5562255074       -0.0072538853
 C        -9.1840123602       -1.1468387198        0.2314960629
 C        -2.5326857297        1.5245351874       -1.8885101254
 C        -2.8137644511        0.3050154437       -4.0795597073
 C        -1.9219963950       -6.3163480636       -1.0708466899
 C        -2.8963371528       -6.7284915696       -3.3732615602
 C        -8.9182214824       -8.6210974479        1.4371105115
 C        -8.0805171180      -10.3347978531       -0.2456040057
 C       -11.2443288902       -5.3287446246       -4.6172925357
 C        -9.8855093745       -7.3950928014       -4.9128036360
 C        -5.0246804567       -1.6860036724       -7.3050085354
 C        -7.3173315580       -2.2913296162       -8.1205140287
 C        -1.8936931037       -2.5043808065      -13.2239996793
 C        -2.5006029815       -0.2675169252      -12.1747075614
 C        -1.9033024550        3.9369832658      -17.2801763049
 C        -3.3386205278        2.2542311402      -18.6531505158
 C         2.4115084840       -1.1305194171      -20.5674914797
 C         3.8291001394       -0.9691751680      -18.5999542298
 C         9.1783542537        2.4523417295      -22.2726732196
 C         8.5446563783        4.2418648271      -20.6609338543
 C         2.9884661908        3.7326450776      -25.4447051412
 C         4.8934837507        4.9489564736      -26.6062512745
 H         1.4926404482        5.4513132157      -26.9439662075
 H         2.0664952655        7.0056106693      -27.5983962152
 H         1.0389324311        7.0093657254      -26.3339161280
 H         5.3832137680        6.9540502999      -23.7067417732
 H         6.3787913634        5.9430665076      -24.9099308768
 H         6.1709664482        5.4278247093      -21.7471028166
 H         7.4152132537        6.1090360596      -22.4527127441
 H         7.9195713532        0.7048666119      -20.5146388788
 H         6.9739904476        0.6041748794      -21.8828754194
 H         5.8918504993        1.1590364987      -19.0293948277
 H         6.1377893663       -0.4730281282      -19.6630175704
 H         2.2584784444        0.9256240936      -17.1962592405
 H         1.1255783529       -0.1053789030      -17.8147074590
 H         0.9028001095        2.8686375589      -17.9853699096
 H         0.2382664371        1.9635172765      -16.6897265037
 H        -3.9076720112       -0.1132586581      -16.9656016207
 H        -4.7274297869        1.3383376136      -16.4443446835
 H        -5.0546757581        0.1197596759      -14.6553952171
 H        -3.7234517052        0.9927584297      -14.0438472861
 H        -3.2351524831       -2.4923630573      -10.5295264204
 H        -3.7674265578       -3.8381968180      -11.6545180439
 H        -6.1266625116       -3.1341619501      -10.7883005661
 H        -5.4203833639       -1.7777761822       -9.9342925719
 H        -5.7201111221       -5.9447035018       -6.6936317409
 H        -6.9581182822       -5.5907494477       -7.7004474947
 H        -7.1243501621       -6.0453337516       -4.7099859040
 H        -7.8304555582       -6.8500411521       -5.9882795810
 H       -11.2720225121       -6.7197948362       -2.4571449115
 H       -10.7197093375       -5.2498885878       -1.5234166562
 H       -10.4660218775       -7.1434536647        0.0112008143
 H        -9.0789959542       -6.1145921191       -0.4114357199
 H        -6.2322101337       -8.3187112980       -1.9047698610
 H        -5.6858753024       -9.6417979296       -0.8486895450
 H        -3.6529129199       -8.4438307635       -0.9279813735
 H        -4.4630687618       -7.5863997748        0.4796029166
 H        -1.0252628811       -4.2801059158       -2.6497463683
 H        -1.5901165081       -3.6272570122       -1.2129934427
 H        -2.5653098408       -2.3904941973       -3.8362337210
 H        -0.8358501543       -2.1526736908       -3.4869810221
 H        -4.2358791759        0.5468396639       -0.1601665147
 H        -4.1646051970       -1.2258471401       -0.3607625398
 H        -6.8484851012        0.3179354983       -0.6746356645
 H        -6.3854502392       -0.4600606837        0.7349694772
 H        -9.1655715626       -0.1717814868       -2.2552175537
 H       -10.7825860558       -1.1528348791       -2.2765283349
 H       -10.4832396219       -1.9719550652       -4.3633800340
 H        -8.6789140921       -1.6439583689       -4.3472067299
 H       -12.0291519736        1.1915642070       -8.1881972378
 H       -11.8018170141       -0.5746480234       -8.7737548937
 H       -10.4142363370        0.3765812766       -8.1515728161
 H       -12.5817443385       -1.3799786914       -4.2698549710
 H       -13.6380343855       -0.0043786847       -4.7258589716
 H       -12.5584952318        0.2354836301       -3.2778041987
 H       -11.2651290539        2.3837855239       -5.9564876267
 H       -11.7494132628        2.0920369634       -4.2694073118
 H       -12.9253365831        2.0583813575       -5.6183560497
 H        -9.5309998389       -3.8145454574       -0.5528589746
 H        -8.6137162848       -3.6102142691        1.1077049783
 H        -7.7162243943       -4.1403382330       -0.3293722790
 H       -10.2224861813       -1.4381048462        0.0611614158
 H        -9.0386305717       -0.1158923592       -0.1991758219
 H        -9.0399532088       -1.1144536491        1.2636982321
 H        -3.0778415261        2.2857565668       -2.3455268264
 H        -1.4851707575        1.7667629355       -1.9868934341
 H        -2.8448864323        1.5940056881       -0.8248980201
 H        -3.6097592598        0.9641938933       -4.4758962434
 H        -3.0262160389       -0.6901257689       -4.5675136735
 H        -1.8525762735        0.3994169877       -4.4819800054
 H        -1.8671206387       -7.3784583024       -0.9965593506
 H        -2.1681190930       -5.7901520800       -0.1610470602
 H        -0.9620389327       -6.0120136074       -1.5086411861
 H        -2.5542268028       -7.7054352541       -3.0832366990
 H        -2.1835392935       -6.2211164827       -3.9372255265
 H        -3.8486110128       -6.7090041590       -3.9478892888
 H        -8.7723388133       -7.6082282368        1.7883065105
 H        -8.5363475631       -9.2391979778        2.2295510712
 H       -10.0008110153       -8.6586458227        1.3854293722
 H        -7.6242470491      -10.4779417116       -1.2160508068
 H        -9.0461721136      -10.8685447592       -0.3265019616
 H        -7.5202049552      -10.9758588744        0.4776605719
 H       -11.2955261536       -4.4863048857       -5.3126458088
 H       -11.5992977688       -4.9426283557       -3.6591539728
 H       -12.1039610358       -5.9265112354       -4.9664956802
 H        -9.9972932203       -7.6306117870       -6.0463864508
 H       -10.7980573373       -7.8689637139       -4.4265144106
 H        -9.0367186959       -7.9123676100       -4.4748943324
 H        -4.8682218067       -1.5453757306       -6.2635467853
 H        -5.5150985990       -0.8381592947       -7.7731574379
 H        -4.0037555582       -1.8375276725       -7.6374397685
 H        -7.8759075398       -3.0579355598       -8.6102103423
 H        -7.2965383684       -1.4162621244       -8.7486992138
 H        -7.8593202489       -2.0218878756       -7.1948946537
 H        -1.5540665764       -2.9768928330      -12.2643941776
 H        -0.9492213180       -2.1450699965      -13.6508613921
 H        -2.2556897032       -3.3113264502      -13.8052202409
 H        -3.4492152610        0.2994626463      -12.0042493039
 H        -1.7511994748        0.1635137321      -12.7285547044
 H        -2.2384472046       -0.5614509420      -11.1588421122
 H        -1.0377154615        3.9098217977      -16.5991203224
 H        -2.7703148623        4.4637973522      -16.9053505703
 H        -1.6517209501        4.3413865457      -18.2111835572
 H        -3.7241822406        1.2822458927      -18.9403690653
 H        -3.0675692058        2.6517782345      -19.6643252313
 H        -4.2754756512        2.8134479183      -18.5506264746
 H         3.1097059697       -1.6921606303      -21.1237412753
 H         1.8202570893       -0.5787237374      -21.2692483963
 H         1.7409227701       -1.7072183957      -19.8907436469
 H         4.3454768747       -1.8025505712      -19.0009251944
 H         2.9854855689       -1.3145553639      -17.9345675256
 H         4.5118846837       -0.5077971838      -17.8993384008
 H         8.8245141777        1.7633657985      -23.0751286060
 H         9.6244383066        1.7730078395      -21.5009265919
 H         9.8782524695        3.0283501323      -22.7948760752
 H         9.4797678143        4.7313825409      -20.9904067374
 H         8.9710478990        3.6952263146      -19.8161373421
 H         7.7226314434        4.8574813423      -20.3901678119
 H         2.2541914178        3.6491461947      -26.2615407203
 H         2.2954136760        3.7521475343      -24.5260908604
 H         3.4176020944        2.7630971851      -25.4997309857
 H         5.5449466184        5.8425683728      -26.4578171474
 H         4.3163169673        5.0811996725      -27.5648084926
 H         5.3699287875        4.0555137554      -26.7080328571
 Na       -6.3152889442       -4.1592219573       -3.2712306387
 Na        3.8408366629        3.0545584321      -21.3363301517
