232

 C         1.8314159808        6.5788182363      -26.3429085180
 C         3.1185769340        6.3982953331      -25.6082583176
 O         3.6336974204        7.2115641518      -24.8957551748
 C         3.9647323194        5.0296440539      -25.7657479656
 C         4.5202957901        4.8686379549      -24.3420372607
 O         3.9284615952        4.1562180973      -23.5397532638
 C         5.6363023060        5.7703001242      -23.8709632377
 C         6.3760291346        5.3678944579      -22.6288567087
 C         7.3380543525        4.0260753589      -22.8966560715
 O         7.5708795188        3.7554103195      -24.0429733667
 C         8.0159563368        3.2132326493      -21.6770098832
 C         6.8282332165        2.5303453993      -20.9250064204
 O         5.9593408753        3.2257056408      -20.4349364447
 C         6.8723161846        0.9762025277      -21.0309738457
 C         5.9441468625        0.2948182249      -20.0246872493
 C         4.4169151601        0.5136328938      -20.3928560585
 O         4.1534634022        0.9452628062      -21.5386651058
 C         3.2998806200       -0.0611758567      -19.4526128653
 C         2.2539874564        1.1085787120      -19.2719438158
 O         2.3131568230        2.1702315774      -19.8573419536
 C         1.2662951871        0.7540679065      -18.2214166042
 C         0.2155308132        1.8966662957      -17.9164921289
 C        -1.1243266899        1.4447827363      -18.3108499806
 O        -1.5107136410        0.4022318539      -18.8081072208
 C        -2.2314922430        2.4045435183      -17.7902422464
 C        -2.6329467580        1.6483117682      -16.3826044153
 O        -1.8558754958        1.4616387861      -15.4927426031
 C        -4.0214301037        0.9613456352      -16.2635770422
 C        -4.4101992082        0.1402229415      -15.0097345595
 C        -3.4579976899       -1.0618845692      -14.7444062370
 O        -3.0322281999       -1.7458662559      -15.6524944472
 C        -3.0228843187       -1.3905416030      -13.1987115339
 C        -4.1701370812       -2.0306928124      -12.4156393500
 O        -5.3077585115       -1.9181433168      -12.7294485116
 C        -3.9808404982       -2.6760738531      -11.0328302813
 C        -5.3488537190       -2.5503775556      -10.2199648502
 C        -5.1633968824       -3.3699938504       -8.8381992653
 O        -4.6316359299       -4.4230396153       -8.7683036141
 C        -5.9689003975       -2.6954347103       -7.5036643894
 C        -6.3365779660       -3.7546932375       -6.3746812070
 O        -6.1568939246       -3.3931113114       -5.2354024338
 C        -6.7332428556       -5.1894693205       -6.8613856985
 C        -7.4389161437       -6.0371379657       -5.7398042757
 C        -8.7024402093       -5.2199828747       -5.4272360917
 O        -8.8114465021       -4.0720182042       -5.8491971383
 C        -9.9093103955       -5.9977854753       -4.5872614435
 C        -9.4445908805       -6.2099531208       -3.0663717512
 O        -8.3029067110       -5.9843251487       -2.7092061970
 C       -10.5383840119       -6.5117530675       -2.0266933825
 C        -9.9087404845       -7.2029564969       -0.8296521115
 C        -8.9970174181       -8.4450960222       -1.1401977462
 O        -8.8344832117       -8.8458881942       -2.2442446332
 C        -8.1756136025       -9.0524520631        0.1450493194
 C        -6.8043248654       -8.1510529530        0.1051359518
 O        -6.7306307287       -7.1182264127        0.7073226983
 C        -5.7157015864       -8.6319848676       -0.9338464902
 C        -4.3073763421       -7.9420621757       -0.9564959451
 C        -4.3724428619       -6.5634260492       -1.6432264123
 O        -5.4220092171       -6.0499594771       -1.8528164050
 C        -2.9440974780       -5.9940872811       -2.0550680099
 C        -2.9719302304       -4.4039141306       -2.4125678217
 O        -3.9428222345       -3.9523951332       -3.0528012096
 C        -1.6953936009       -3.6123131019       -2.4512670007
 C        -1.8537707532       -2.2589866420       -3.2411685098
 C        -2.1398661504       -1.0459057196       -2.2874756439
 O        -1.4185654737       -0.8683390819       -1.2987864031
 C        -3.0579619662        0.0992354198       -2.7712811821
 C        -4.4672129722       -0.2241127578       -2.1411594353
 O        -5.3870719125       -0.1667564574       -2.9082027067
 C        -4.5136757249       -0.3163104108       -0.6328564358
 C        -6.0884087792       -0.4010078339       -0.2505217159
 C        -6.6749951337       -1.7510390768       -0.7518842726
 O        -5.9419929948       -2.6078122164       -1.2216636615
 C        -8.2483041055       -2.0067071187       -0.5051525280
 C        -8.8157044369       -2.1219192214       -1.9514764924
 O        -8.4554322467       -3.0293349956       -2.6273605206
 C        -9.6574175033       -0.9537620195       -2.5854683809
 C        -9.7109933993       -1.1143619177       -4.1092849769
 C       -10.1304386608        0.2783347135       -4.7148099118
 O        -9.4203652129        1.1478385746       -5.0301599060
 C       -11.6806244682        0.3071363929       -5.1979589467
 C       -11.5912985560       -0.5543242602       -6.5994660157
 O       -11.7993247816       -1.7599257633       -6.5053579534
 C       -10.8692177373        0.2384206929       -7.8259592186
 C       -12.7295972123       -0.3678053849       -4.2664584810
 C       -12.1864085753        1.7344634571       -5.4532188864
 C        -8.3284571474       -3.2988175359        0.2550893779
 C        -8.9364982431       -0.9265778461        0.3396124035
 C        -2.3374232903        1.3553521933       -2.2257057123
 C        -3.2496639910        0.0114296612       -4.3909579319
 C        -1.8076575637       -6.1470206738       -0.9657048934
 C        -2.5527158006       -6.9061443948       -3.2928805836
 C        -8.6904478643       -8.7698355564        1.5622746076
 C        -7.9712991734      -10.5247053245       -0.0694385196
 C       -11.1545073347       -5.1535079222       -4.5835612146
 C       -10.1472202711       -7.4104251627       -5.1181294854
 C        -5.1004866661       -1.5382387802       -7.0239664100
 C        -7.3492918817       -2.1443710384       -8.0117616998
 C        -1.7998251244       -2.3787608192      -13.2079227914
 C        -2.5430471297       -0.0579746701      -12.4773155275
 C        -1.7274926273        3.8091130377      -17.2299374299
 C        -3.3301196365        2.5802404754      -18.7643053207
 C         2.7222930614       -1.3021388532      -20.3356761480
 C         3.8563590584       -0.6989733963      -18.1673234377
 C         9.0226246606        2.2796763734      -22.4148960467
 C         8.8147271447        4.1532496062      -20.8013900857
 C         2.9998569774        3.7893006326      -25.9880269317
 C         5.0346419707        5.1141070893      -26.8394382420
 H         1.2932015398        5.7258493440      -26.6663512311
 H         2.0245575197        7.2925945236      -27.2267387187
 H         1.1553292210        7.2431962840      -25.7859131866
 H         5.2408238353        6.7223109904      -23.7802537396
 H         6.2774821131        5.6481086121      -24.7434108955
 H         5.7642289140        5.4545645993      -21.7330072027
 H         6.9817556795        6.2388777041      -22.3750213008
 H         7.9763354585        0.6322234320      -20.9908337111
 H         6.5021309111        0.6173341179      -21.9623683003
 H         6.1929184867        0.5784479420      -18.9906868512
 H         6.0376418026       -0.7721610626      -20.0394687484
 H         1.7751744503        0.2585483431      -17.3161711487
 H         0.6282056191       -0.0929225371      -18.5714349110
 H         0.3756117503        2.9030910122      -18.4296397972
 H         0.2092976013        2.0875002543      -16.8063235822
 H        -4.1937345956        0.4103390620      -17.1658084681
 H        -4.8189316067        1.7738106194      -16.3393405169
 H        -5.4446438654       -0.2922538683      -15.1732098776
 H        -4.4802771333        0.7624493174      -14.1416848130
 H        -3.2512114541       -2.3415005878      -10.3941927987
 H        -3.8200801260       -3.8036530826      -11.0547128874
 H        -6.1473134027       -2.9334950845      -10.9067350591
 H        -5.5388277664       -1.5523032832       -9.8198414108
 H        -5.8223165045       -5.7307505816       -7.2906991488
 H        -7.3848780823       -5.1314847495       -7.7620132180
 H        -6.7748014595       -6.2807103203       -4.8806430496
 H        -7.7820686877       -6.9982003260       -6.2103782860
 H       -11.3198403164       -7.1996504125       -2.3447823328
 H       -10.9359053647       -5.5288701148       -1.8035709451
 H       -10.6172629612       -7.4817078456       -0.0942809012
 H        -9.2249832568       -6.5570523149       -0.3610767515
 H        -6.2416801698       -8.6801604313       -1.8324570980
 H        -5.6170398927       -9.6674278208       -0.6851800029
 H        -3.6471801600       -8.6939969019       -1.4617879814
 H        -3.9359171530       -7.7242147805       -0.0273460587
 H        -0.9446308025       -4.2372296550       -2.9225235664
 H        -1.2862651539       -3.4619334515       -1.4364657885
 H        -2.6075124766       -2.4748194791       -4.0130271321
 H        -1.0050205313       -2.0022375750       -3.7489759212
 H        -4.0396220011        0.5736462895       -0.1398797690
 H        -4.0160903045       -1.2713057442       -0.3671339043
 H        -6.6674820367        0.4601084046       -0.6390063392
 H        -6.2772513314       -0.4388251238        0.8548842446
 H        -9.2506993811       -0.0512837249       -2.2373477563
 H       -10.7021255691       -1.2021353581       -2.3541477025
 H       -10.3420852267       -1.8537920761       -4.4326919441
 H        -8.7179181476       -1.3028389226       -4.5037510575
 H       -10.9757486121        1.2945133470       -7.6117893211
 H       -11.3950503984        0.0951079328       -8.8784654255
 H        -9.8647029522       -0.0879684449       -7.7458904779
 H       -12.7727371334       -1.4912155377       -4.4271867324
 H       -13.6746628746       -0.0051034610       -4.4657019191
 H       -12.4904167945       -0.0960361412       -3.2806750567
 H       -11.3407165538        2.4144777198       -5.7618472738
 H       -12.8001683919        2.0535222760       -4.6259048021
 H       -12.9134652562        1.7871842798       -6.2829963135
 H        -9.2514920548       -3.3441991992        0.7657358440
 H        -7.4955142473       -3.4186157994        0.8756713741
 H        -8.2133686766       -4.0366966957       -0.4978981156
 H        -9.9949127278       -1.0424615531        0.5539508813
 H        -8.9458807702        0.0216062556       -0.2603811119
 H        -8.4344359418       -0.8411543894        1.3062489256
 H        -3.0551135489        2.1011778016       -1.9158056859
 H        -1.5445944289        1.7622315342       -2.9361522075
 H        -1.7686662393        1.0435763642       -1.3096039627
 H        -3.7493326248        0.9308219218       -4.7405377395
 H        -3.6960594743       -0.8251299783       -4.8982854164
 H        -2.2795888887        0.0318567064       -4.7972423068
 H        -1.7719866043       -7.1613085096       -0.4970149463
 H        -2.0654869290       -5.4608768985       -0.2109412944
 H        -0.9420019363       -5.8433375635       -1.5137477868
 H        -2.8300431512       -7.9446493514       -3.0188563080
 H        -1.4845793420       -6.8140687747       -3.4149705314
 H        -3.0769048371       -6.4978047336       -4.1800934885
 H        -8.7258841916       -7.6950820542        1.6125586005
 H        -8.0140602547       -9.0846089032        2.3327217235
 H        -9.7778882597       -8.8851046491        1.7252909702
 H        -7.6132477369      -10.7910600486       -1.0564543708
 H        -8.7820867867      -11.1838236874        0.2316643794
 H        -7.1512959650      -10.8611833429        0.5541732663
 H       -11.0357838639       -4.1503805058       -4.9540312138
 H       -11.6853520645       -5.0379802210       -3.6737855046
 H       -11.9068579154       -5.5329929204       -5.2797919889
 H       -10.5204255616       -7.4016434813       -6.1133305020
 H       -10.9362564681       -7.8149300344       -4.5250900555
 H        -9.3419475506       -7.9968100957       -5.0166709333
 H        -5.7601712776       -0.7783876854       -6.6573018653
 H        -4.5193682850       -1.0423740442       -7.8185836407
 H        -4.4760032469       -1.8648159726       -6.1191065753
 H        -7.9190020851       -2.9788853815       -8.4794504443
 H        -7.2146472638       -1.2762931204       -8.7498383736
 H        -8.0819788324       -1.7252527719       -7.2641750788
 H        -1.4345970641       -2.6477767163      -12.2143469245
 H        -0.9839178616       -1.9040400207      -13.8771725579
 H        -2.1031068191       -3.3865558705      -13.5904573984
 H        -3.5296054805        0.5179935434      -12.3421770055
 H        -1.8820215608        0.3851433149      -13.2056693167
 H        -2.0782158913       -0.3026032087      -11.5760954942
 H        -1.2614895761        3.6981062687      -16.1575040958
 H        -2.6275450147        4.3409968314      -17.0793964267
 H        -1.1172598259        4.3279686397      -17.9730282716
 H        -3.6353550236        1.6716949804      -19.2355012146
 H        -3.1000213428        3.2582175064      -19.5805952899
 H        -4.2817924274        2.9607890162      -18.5253240990
 H         3.4219388246       -2.0940953819      -20.4251951061
 H         2.6071768438       -0.8603473512      -21.3531752186
 H         1.7818523131       -1.6030456746      -19.8663085175
 H         4.5306215464       -1.4879166708      -18.3600414101
 H         2.9517741012       -1.1704847841      -17.6494575965
 H         4.2763647906        0.0409393982      -17.4534379797
 H         8.7488991559        1.5375447060      -23.1578612520
 H         9.6921823074        1.7531802561      -21.7093337536
 H         9.6528905758        2.9195692598      -23.0158066968
 H         9.5418578981        4.8070965596      -21.3333341305
 H         9.2624485281        3.4680438280      -20.0013075524
 H         8.0922825180        4.8016727465      -20.2228760025
 H         2.7538318257        3.2986689914      -26.8558286409
 H         2.0871391639        3.8607396070      -25.4102457043
 H         3.4819594883        3.0169574367      -25.4196302752
 H         5.2078573424        6.1189181007      -27.1693208269
 H         4.7032850871        4.4368000781      -27.6840138369
 H         5.8768934542        4.6317427258      -26.5242796117
 Na       -6.5273187712       -4.2011122114       -2.8270683241
 Na        3.6758721693        3.2144667270      -21.4092146223
