232

 C         1.7144953974        6.6407997889      -26.4271651749
 C         3.0277976036        6.4560901863      -25.5556898810
 O         3.4578055979        7.3540790125      -24.9375767622
 C         3.8572331677        5.1028145928      -25.7128541729
 C         4.2693402903        4.8439365392      -24.2227621787
 O         3.5726911901        4.0942898755      -23.5006357015
 C         5.4472265226        5.7228319209      -23.7022735226
 C         6.2319508333        5.0806693896      -22.5779110707
 C         7.2166467574        3.8677064603      -22.9933595376
 O         7.5076832819        3.6746890576      -24.1412985329
 C         8.0882347449        3.1084428923      -21.8614391154
 C         7.0456373159        2.3560660527      -21.0204211271
 O         6.1416515358        2.8895373873      -20.4816555868
 C         7.0251255974        0.8499782096      -21.0028234096
 C         5.9633125454        0.3442057558      -19.9480098882
 C         4.5315762537        0.4462873553      -20.3441061877
 O         4.2164358223        0.9399108447      -21.4262448324
 C         3.4881056287       -0.1980442947      -19.3771521898
 C         2.3590956984        0.9978872980      -18.9771593790
 O         2.6105955512        2.1312244863      -19.2965117125
 C         1.0376922156        0.7335732394      -18.3074265629
 C         0.0562704725        1.8355418314      -18.1738293269
 C        -1.4259227837        1.4821257364      -18.3849199294
 O        -1.6946798275        0.3815602982      -18.7703415192
 C        -2.4947708700        2.3654119304      -17.5721355584
 C        -2.9749076198        1.4434172450      -16.3675799300
 O        -2.2427504090        1.4336992448      -15.3908130767
 C        -4.2795585031        0.6691619925      -16.4007864346
 C        -4.6691216988        0.1103249896      -15.0452917656
 C        -3.5381316698       -1.0041972893      -14.7832139198
 O        -3.1557465919       -1.6877554354      -15.6999418294
 C        -3.0053420417       -1.2820971977      -13.2773176614
 C        -4.2888559785       -1.7038573953      -12.4481341671
 O        -5.4349421891       -1.5694144498      -12.8636165786
 C        -3.9822388657       -2.3860942672      -10.9184961426
 C        -5.2343716447       -2.1586795005      -10.0058554143
 C        -5.2292655510       -3.1125522762       -8.8417609723
 O        -4.5357452749       -4.1069501848       -8.7337571709
 C        -6.0177482539       -2.6883021235       -7.4850313431
 C        -6.1750979990       -3.8260998512       -6.3977801518
 O        -5.8745209065       -3.6437937138       -5.2452283354
 C        -6.7054357191       -5.2238733114       -6.8276010461
 C        -7.5075073818       -5.9245154477       -5.7473323225
 C        -8.7753684683       -5.1312607133       -5.3231834208
 O        -8.7844942248       -3.9314490483       -5.5790182407
 C        -9.9126054348       -5.9728894199       -4.6702675921
 C        -9.4648696311       -6.3329946295       -3.1623292988
 O        -8.4255136081       -5.9414698541       -2.7410753859
 C       -10.4632725367       -7.0419518681       -2.2456568274
 C        -9.8847897404       -7.4036878457       -0.8710435429
 C        -8.8217548533       -8.5299872970       -1.0170706571
 O        -8.6674024969       -8.8307158465       -2.2143841056
 C        -7.9036191266       -9.1223606103        0.1567453823
 C        -6.5698623461       -8.1833061494        0.0210345568
 O        -6.4709434056       -7.0581145196        0.4066549715
 C        -5.5101892525       -8.7788566637       -0.9577778147
 C        -4.1334506698       -8.0460221609       -0.8965438914
 C        -4.1865430049       -6.7830132670       -1.7882776328
 O        -5.2723564628       -6.3767962152       -2.0645966678
 C        -2.7827713772       -6.0726307794       -2.1221292168
 C        -3.0350032156       -4.4844010361       -2.4842159511
 O        -4.1605795394       -4.1708429738       -2.9006544670
 C        -1.7778963941       -3.6396567370       -2.6168763713
 C        -2.0235881008       -2.3573240802       -3.4881796435
 C        -2.1775983582       -1.1505958178       -2.6128363061
 O        -1.5807606493       -1.1823874656       -1.5305100339
 C        -3.0089109558        0.0105768768       -3.0321165072
 C        -4.3546197494       -0.0856706849       -2.1851470197
 O        -5.3747254313       -0.1784041293       -2.7915420855
 C        -4.3018250850       -0.0985993921       -0.6190728456
 C        -5.7329627351       -0.4637599597       -0.0471947699
 C        -6.4747724702       -1.6672310172       -0.6963192040
 O        -5.7294488814       -2.5037053807       -1.2243694474
 C        -8.0672172156       -1.8493230358       -0.4748887512
 C        -8.7674138131       -2.0146304482       -1.9111899862
 O        -8.6401972122       -2.9867205552       -2.5764954294
 C        -9.4833466025       -0.6424701741       -2.4988619709
 C        -9.6928571968       -0.8432296034       -4.0001232615
 C       -10.2216988469        0.3862538010       -4.7115498809
 O        -9.6034371694        1.3893460460       -4.8903262385
 C       -11.7227837666        0.2467035229       -5.2969710175
 C       -11.5280276327       -0.6162134670       -6.5144548350
 O       -12.0681252639       -1.6713173428       -6.7085872484
 C       -10.6826370846       -0.0409605660       -7.6624565022
 C       -12.6959785039       -0.5191594213       -4.4032051946
 C       -12.2661544474        1.6362237038       -5.5983868138
 C        -8.1920891476       -3.1178969209        0.2631877788
 C        -8.6049490488       -0.7053213882        0.4038826762
 C        -2.5172210458        1.5024121271       -2.6117787497
 C        -3.2362657234        0.0817923416       -4.5197727254
 C        -1.9660292303       -6.1345465635       -0.8396756881
 C        -2.0977119693       -6.8344935773       -3.2695023998
 C        -8.6653242241       -8.9100983522        1.5456347748
 C        -7.6578078845      -10.5814040498        0.0376703351
 C       -11.1605375897       -5.1300269660       -4.6149257963
 C       -10.2943926611       -7.3180434371       -5.3543205010
 C        -5.3258882583       -1.5251575060       -6.7666204983
 C        -7.4987195739       -2.2449925790       -7.7983242486
 C        -1.8633042185       -2.3305239375      -13.1831595356
 C        -2.5490123146        0.0722621094      -12.6365780751
 C        -1.9652408312        3.7461111406      -17.1704332613
 C        -3.7429184820        2.6139962853      -18.4559134554
 C         2.7627251895       -1.3343937796      -20.0923383314
 C         4.1050839771       -0.5485631206      -18.0542788466
 C         9.3082704617        2.4337952359      -22.4223148096
 C         8.6536983246        4.3115602385      -20.8955052862
 C         3.0940623607        3.9795034172      -26.4207343258
 C         5.0793783806        5.4964775759      -26.5974904625
 H         1.2168822822        5.7191603087      -26.4790459868
 H         1.9053679588        6.8725316214      -27.4789394662
 H         1.0026949880        7.3889688554      -26.0920275719
 H         4.7909562824        6.6069812275      -23.4848569821
 H         6.1376616684        5.8836756124      -24.5956546988
 H         5.6420277578        4.8686322235      -21.6893010876
 H         6.8724829796        5.9168916502      -22.1071764520
 H         8.0491298070        0.3775878316      -20.6169537648
 H         6.8048810876        0.4617745732      -22.0094444523
 H         6.1933961754        0.6666362828      -18.9729402841
 H         6.0325132711       -0.8319250257      -19.7659679495
 H         1.2319302646        0.3059061711      -17.3495283907
 H         0.5530757675       -0.0578714745      -18.8461237732
 H         0.3611809496        2.5982484775      -18.7992818512
 H         0.2623265971        2.2777960866      -17.1939225722
 H        -4.1046142226       -0.1435836522      -17.1091759021
 H        -4.9872403704        1.3256303434      -16.8878182692
 H        -5.6741010315       -0.3967284253      -14.9112928669
 H        -4.4450591507        0.8647990638      -14.2918446524
 H        -3.1968705234       -1.9773141657      -10.2659310106
 H        -3.7213507999       -3.4484001898      -10.9152345630
 H        -6.1064449285       -2.4727149956      -10.5697708197
 H        -5.3251283034       -1.1481926876       -9.6982531528
 H        -5.8918267586       -5.8010852169       -7.1848572030
 H        -7.4199106821       -5.1704011472       -7.6101902753
 H        -6.8629530132       -6.1086441903       -4.8376777799
 H        -7.8139591395       -6.8782796393       -6.2009496752
 H       -10.6724563062       -8.0010135761       -2.7427723579
 H       -11.4535648359       -6.5279856079       -2.0874882879
 H       -10.7604762016       -7.6057633676       -0.1347132973
 H        -9.3497029813       -6.4779706571       -0.4723961330
 H        -6.0475267438       -8.7859974312       -1.9248888260
 H        -5.4548391876       -9.8597380796       -0.6420100411
 H        -3.2965998313       -8.7979461519       -1.1246013868
 H        -3.9544471829       -7.5919646506        0.0912481439
 H        -0.9494530103       -4.2730530732       -3.1410390397
 H        -1.3117236292       -3.2814023345       -1.6632953091
 H        -2.8776767024       -2.5570320269       -4.1681852724
 H        -1.1544785078       -2.1390097909       -4.0955141946
 H        -4.0836099261        0.8357731606       -0.0546528800
 H        -3.6237896484       -0.8550831399       -0.2621413198
 H        -6.3783161644        0.3791070116       -0.2380150011
 H        -5.5977066491       -0.6285222987        1.0649470966
 H        -8.7601749178        0.2252141983       -2.4067674971
 H       -10.3665327489       -0.5542250642       -1.8150332230
 H       -10.2361151410       -1.7417246048       -4.3431417043
 H        -8.6371295528       -0.9594704394       -4.4139612483
 H       -10.5288562824        0.9829678528       -7.5079480120
 H       -11.3814240589       -0.0798787253       -8.5303700982
 H        -9.7860860161       -0.6066621549       -7.6695259873
 H       -12.2006776889       -1.4331656999       -3.9068032566
 H       -13.5579511612       -0.8767555954       -4.9380139314
 H       -13.0062441940        0.1731832055       -3.6192544435
 H       -11.6953513745        2.1313255032       -6.4203820775
 H       -12.2352530283        2.3075240691       -4.7679562838
 H       -13.3044590838        1.6260943866       -5.8163923776
 H        -9.2720802696       -3.2629765745        0.5245177440
 H        -7.7213519240       -2.9590038810        1.2793935127
 H        -7.7252492177       -3.9876734337       -0.3395464504
 H        -9.6403524661       -0.8927544466        0.4178132679
 H        -8.5110950049        0.2395417779       -0.0668802634
 H        -8.2709920385       -0.6538649175        1.4717774282
 H        -3.2705278694        2.1643063544       -2.9864326279
 H        -1.5472830378        1.7432091938       -3.0407549587
 H        -2.3700996792        1.6056117644       -1.5998110147
 H        -3.7792224876        1.0357885666       -4.7199705460
 H        -3.8595031243       -0.7302150386       -4.8686309637
 H        -2.3933744702        0.1836276101       -5.2341694060
 H        -1.6708791853       -7.2506879842       -0.6420047604
 H        -2.5633709377       -5.9772383253        0.0480017036
 H        -1.0796653776       -5.4717070301       -0.9609875816
 H        -1.8659542772       -7.8052035721       -2.8748208859
 H        -1.2022659404       -6.2884113339       -3.5515539591
 H        -2.7842282570       -6.9330139645       -4.0501387678
 H        -8.7334621640       -7.8444190770        1.7035322122
 H        -8.1919083486       -9.3972240322        2.3887161519
 H        -9.7456877403       -9.2014634436        1.5275933458
 H        -7.2439190198      -10.9111286189       -0.9680069709
 H        -8.6323374732      -11.0861740918        0.1716547848
 H        -6.9082237236      -11.0150579992        0.7128174771
 H       -11.2365551230       -4.5113218034       -3.7057573803
 H       -12.1097096222       -5.6530454781       -4.5843680540
 H       -11.2175878004       -4.3989376037       -5.4347141126
 H       -10.3516969397       -7.2037813682       -6.4892723624
 H       -11.3138747853       -7.7261523907       -4.9584986233
 H        -9.4583294817       -7.9861665974       -5.1136020754
 H        -5.7227705323       -0.6050751788       -7.1256766910
 H        -4.2684809011       -1.4438629679       -7.0462130634
 H        -5.2160185254       -1.7429727342       -5.6522411445
 H        -8.0474052798       -3.0951000743       -8.1709573881
 H        -7.4959573251       -1.5058598225       -8.6023595918
 H        -8.1039553696       -1.8688460729       -7.0301695852
 H        -1.6389480460       -2.5166653757      -12.2051483607
 H        -1.0311807797       -1.8010287275      -13.7287652919
 H        -2.0586675921       -3.2704271060      -13.6862163766
 H        -3.3865303518        0.8020823133      -12.3970787117
 H        -1.9185697586        0.5710187423      -13.4177321374
 H        -1.9047852884       -0.3017731939      -11.9067918141
 H        -1.1400213439        3.5546855866      -16.3545370321
 H        -2.7040912958        4.3042079188      -16.7062156646
 H        -1.5184637399        4.2977415616      -18.0129203626
 H        -4.3351505774        1.7396052026      -18.7412355092
 H        -3.6916417172        3.1429898447      -19.3876184812
 H        -4.5506007270        3.1429328741      -17.9986236894
 H         3.4173606287       -2.1748044931      -20.3243787008
 H         2.4307498927       -0.8726403518      -21.1052472414
 H         1.9582423168       -1.7252345306      -19.4826254368
 H         4.8670614933       -1.2729638069      -18.2542064903
 H         3.3692415045       -1.1118173552      -17.4400252825
 H         4.4920430918        0.3329701209      -17.5480736681
 H         9.0594929856        1.8055318402      -23.2417569841
 H         9.9116053587        1.8405240604      -21.7808624420
 H        10.0153594125        3.1612724287      -22.8831182213
 H         8.9548407591        5.0844841400      -21.4858979731
 H         9.3064215379        3.9320617133      -20.1551670457
 H         7.8426193653        4.7703566888      -20.3315940033
 H         2.4230121261        4.2908929399      -27.2038306875
 H         2.4253457472        3.5098541284      -25.6889939455
 H         3.6101120967        3.1024203814      -26.9327565539
 H         5.7951268320        6.1927253396      -26.1707044062
 H         4.6859805461        5.9794881971      -27.5706770428
 H         5.5230179804        4.5227657491      -26.8285973950
 Na       -6.4963962057       -4.3732202034       -2.8664450067
 Na        3.7730129604        3.1553997386      -21.3340325818
