232

 C         1.6132297453        6.5770872146      -26.4369058577
 C         2.8057150111        6.6055420729      -25.5724627621
 O         3.1160238098        7.5619829906      -24.9633649057
 C         3.7442366950        5.2445770579      -25.6052451183
 C         4.2196742886        4.8998096480      -24.1610553859
 O         3.8770950955        3.8649459549      -23.6376319943
 C         5.3537239808        5.8584837940      -23.5831472851
 C         6.1951889692        5.0881538613      -22.5130150302
 C         7.1149946325        3.9209888623      -22.9725414917
 O         7.2438511434        3.5026352571      -24.0827792197
 C         7.9738869137        3.1517049901      -21.7959992480
 C         6.9787680083        2.2963341531      -21.0149691109
 O         6.0616666000        2.9689057041      -20.3971273671
 C         7.0923920236        0.7827438953      -21.0322341554
 C         6.2419122731        0.0597464162      -20.0236728943
 C         4.6776615325        0.3001435107      -20.2920949188
 O         4.3392721463        0.7176557076      -21.3451898554
 C         3.4617673255       -0.0906815248      -19.2131781386
 C         2.3422537180        1.0500585061      -19.1413689438
 O         2.7363525751        2.1697006497      -19.3717555875
 C         0.9351259111        0.7316166276      -18.8071139021
 C         0.0266102666        1.8148651153      -18.1873030016
 C        -1.4511855865        1.4646405883      -18.3435690786
 O        -1.8566175670        0.5599327825      -19.0086538237
 C        -2.6182337144        2.3147473056      -17.6235761912
 C        -3.1774773425        1.4583133280      -16.2870138649
 O        -2.6267441306        1.6650979839      -15.1983523572
 C        -4.3835904481        0.5977377813      -16.3584876622
 C        -4.6830544850       -0.1882003104      -14.9942645827
 C        -3.5889915168       -1.1222512714      -14.5849288040
 O        -3.0573344063       -1.7864866508      -15.4342453289
 C        -3.2469015500       -1.1973669376      -13.0960005897
 C        -4.4762301469       -1.4671611963      -12.2702639118
 O        -5.6831836522       -1.3157610972      -12.5887097021
 C        -4.1235055529       -2.0325075423      -10.8369491699
 C        -5.2570075874       -1.9952074770       -9.8073024045
 C        -5.1362735783       -3.0116479166       -8.6704791288
 O        -4.4739682029       -4.0400058795       -8.6312439200
 C        -6.2107526709       -2.6995699110       -7.4489204577
 C        -6.1385779471       -3.8609740647       -6.3852253179
 O        -5.7238673859       -3.6439765586       -5.2771966675
 C        -6.6410619433       -5.2288450307       -6.8602673428
 C        -7.5770892668       -5.8850777021       -5.7643800830
 C        -8.7551462642       -5.0505980859       -5.3552662370
 O        -8.8460360177       -3.8489277211       -5.4704873067
 C        -9.9252607385       -5.8870345143       -4.6444724578
 C        -9.3465168224       -6.3252129737       -3.1325980869
 O        -8.4261727856       -5.7966793707       -2.6303799288
 C       -10.3774089363       -7.2355235644       -2.3929697113
 C        -9.7554009683       -7.8408197388       -1.0683897040
 C        -8.5432518446       -8.7588848980       -1.2999869067
 O        -8.2787492168       -9.2762102678       -2.4342968378
 C        -7.7236264526       -9.1146466896        0.0309267319
 C        -6.3057824101       -8.3210402928       -0.0032009650
 O        -6.1225169721       -7.2660147617        0.5608018784
 C        -5.1434016132       -8.9635264148       -0.8233759047
 C        -4.0276939129       -8.0269110214       -0.8524513178
 C        -4.2003915407       -6.8119383859       -1.8945243248
 O        -5.1925822103       -6.6005502907       -2.5429057973
 C        -2.8273619564       -6.0383307545       -2.0052595270
 C        -3.0277394402       -4.6298792609       -2.6230728246
 O        -4.1592273166       -4.2031124200       -2.9017148345
 C        -1.8713180909       -3.7435213416       -2.8827031574
 C        -2.1983389870       -2.3928878996       -3.5713371185
 C        -2.2317018756       -1.2278153962       -2.6749391000
 O        -1.6174143113       -1.2538068665       -1.6003535763
 C        -3.0043888045        0.0498477222       -3.0657390227
 C        -4.3929236346        0.0125303794       -2.2906938765
 O        -5.3922707766        0.0639026261       -2.9734315237
 C        -4.2319940935       -0.1986610459       -0.7246453857
 C        -5.6097978928       -0.4235420766       -0.0356569486
 C        -6.3689649491       -1.6529973904       -0.7308490660
 O        -5.7048772629       -2.4689446923       -1.3418482093
 C        -7.9402093512       -1.7663953941       -0.4002620707
 C        -8.4461748186       -1.7732708944       -1.9531355985
 O        -8.2695439470       -2.7487714796       -2.6588665536
 C        -9.1292205252       -0.5816362600       -2.5734255182
 C        -9.4783751531       -0.8285981270       -4.0267237044
 C       -10.3164365254        0.4387704509       -4.5676341531
 O        -9.8988338933        1.5803600101       -4.5035405119
 C       -11.6858341940        0.1209215895       -5.2822655111
 C       -11.6002101259       -0.7655455404       -6.6479454159
 O       -12.3127319954       -1.6990216961       -6.8236072795
 C       -10.5894659783       -0.1956288725       -7.6818877640
 C       -12.6076700973       -0.5457046384       -4.2507867779
 C       -12.2372385324        1.5124586756       -5.7226527547
 C        -8.2968639047       -3.1032065093        0.2059381277
 C        -8.4208901113       -0.5803757644        0.4398245670
 C        -2.1678927526        1.2664058111       -2.6243890782
 C        -3.2955175694        0.3356909610       -4.5719343432
 C        -1.9844551210       -5.9558722280       -0.7314630027
 C        -2.1137093702       -6.9038751952       -3.1404340019
 C        -8.4386407927       -8.4799939161        1.2347706064
 C        -7.7123323613      -10.6673068405        0.0667953727
 C       -11.1036386439       -4.9846778908       -4.5474075343
 C       -10.3368846028       -7.1972911036       -5.4199306483
 C        -5.5230534210       -1.4588150832       -6.7642698130
 C        -7.6051257839       -2.4661747088       -7.9824730054
 C        -2.1982338767       -2.4082532199      -12.9593374695
 C        -2.5656358684        0.0762700444      -12.6186709573
 C        -2.2011749172        3.6697845442      -17.0040489780
 C        -3.6036657592        2.4400855555      -18.7192997215
 C         2.7478279360       -1.2416858396      -19.9026947007
 C         3.9165954853       -0.3912820755      -17.7855482636
 C         9.1196936639        2.3518313500      -22.4645708685
 C         8.5506356624        4.1358218222      -20.7915265651
 C         2.9685798609        4.0260063565      -26.2277720214
 C         4.9620187179        5.6806859661      -26.4853883874
 H         0.6772536061        6.5451505465      -25.8098396800
 H         1.4487484088        5.7949584600      -27.1574824583
 H         1.5776998936        7.5994225587      -26.8856066584
 H         4.7891865570        6.6544327416      -23.0961196932
 H         5.8555318119        6.1591423459      -24.4919300470
 H         5.5111716547        4.7825845692      -21.7568828803
 H         6.7071716391        5.8888664787      -22.0032611246
 H         8.1103799666        0.4049539293      -21.0092496121
 H         6.6265868909        0.5682028047      -21.9445526494
 H         6.3144875199        0.3879486940      -19.0361167551
 H         6.5862940813       -1.0656591023      -19.8556771619
 H         0.9740292257       -0.1229075122      -18.1216749699
 H         0.3974803291        0.3833038996      -19.7644822528
 H         0.2844897969        2.7569390139      -18.7036956023
 H         0.3454026999        2.0420153389      -17.1160315578
 H        -4.3922597217        0.0540030721      -17.3626231903
 H        -5.2151491154        1.2844783447      -16.4267985655
 H        -5.5821980365       -0.7197300741      -15.1022972861
 H        -4.7754768890        0.5598740289      -14.2210878489
 H        -3.2489336583       -1.4158382295      -10.3249876361
 H        -3.7028830046       -3.0028199984      -10.7712923565
 H        -6.1949725217       -2.1517473680      -10.3959824543
 H        -5.2995831006       -0.9620034872       -9.3335941952
 H        -5.7909917149       -5.9361291428       -6.9873625633
 H        -7.2721755228       -5.0800520686       -7.7913181785
 H        -6.9080094142       -6.0474369211       -4.9587755078
 H        -7.9586049257       -6.7825895498       -6.1006657161
 H       -10.7343746888       -7.9638310013       -3.0785582658
 H       -11.2624986623       -6.6202773271       -2.1579079911
 H       -10.4536056632       -8.4772127771       -0.5573506930
 H        -9.5920331971       -7.0175484715       -0.4309888848
 H        -5.6430770096       -9.0227018007       -1.8090500001
 H        -4.9591957806       -9.9209404588       -0.3279477743
 H        -3.1086441439       -8.4912068374       -1.0547529056
 H        -3.9306578532       -7.6000770394        0.1796939890
 H        -1.1619796205       -4.1215165802       -3.6193657564
 H        -1.3774235827       -3.4984206635       -2.0332629663
 H        -3.1772773723       -2.4575895644       -4.0396072300
 H        -1.4208703973       -2.1330174683       -4.3959451376
 H        -3.6968984912        0.6224519374       -0.2734108361
 H        -3.6149454796       -1.0696178683       -0.5405802782
 H        -6.1520553019        0.4901265784       -0.2146264671
 H        -5.5730195468       -0.7870130050        0.9942574003
 H        -8.1707478485        0.0019725281       -2.6383863189
 H        -9.7815163631       -0.0840735233       -1.9674596101
 H       -10.1555189222       -1.7166229032       -4.1165651007
 H        -8.7038976089       -0.9849208510       -4.7394543293
 H        -9.8838186935        0.4951437650       -7.2376260395
 H       -11.2491279724        0.4364715707       -8.2846407898
 H       -10.0347897440       -1.0920645511       -8.1194764479
 H       -12.2276622743       -1.5194092309       -3.9287174505
 H       -13.5405628976       -0.7537651918       -4.7815471339
 H       -12.8257221231       -0.0565939199       -3.2924596495
 H       -11.5356495867        2.0314159113       -6.3789803907
 H       -12.3495192498        2.2909961690       -4.9533347208
 H       -13.2036966463        1.4314857760       -6.2149301045
 H        -9.2911023055       -3.3565164160        0.2258406616
 H        -8.0095372126       -3.0482210173        1.2005419915
 H        -7.7318787643       -3.8541001373       -0.3363460076
 H        -9.5166780921       -0.5338369808        0.6332214509
 H        -8.0521577392        0.3346805309        0.0382519398
 H        -7.7825213038       -0.5498426845        1.3871754560
 H        -2.6560530098        2.2861818709       -2.8209524489
 H        -1.3091355542        1.2789559687       -3.3531474173
 H        -1.7103053670        1.1620865450       -1.6681803774
 H        -3.8888938582        1.2239481906       -4.7952100907
 H        -3.8115861273       -0.4074010902       -5.1184596968
 H        -2.3468126542        0.7144016644       -5.0295216088
 H        -2.0697194846       -6.8515116444       -0.0539095486
 H        -2.3518284777       -5.1359134891       -0.2045379441
 H        -0.9422130958       -5.8484953453       -0.9114027293
 H        -2.0228851539       -7.9558189386       -2.8120383861
 H        -1.1015425269       -6.4368045440       -3.4176040671
 H        -2.8197757462       -6.8940719622       -3.9372598044
 H        -8.4572807919       -7.3839444170        1.1660869885
 H        -7.8366484425       -8.7165272000        2.1174614712
 H        -9.3853060730       -8.9298176487        1.5159740244
 H        -7.4105980675      -11.1960941863       -0.8743439541
 H        -8.7177483722      -11.0213253638        0.2370603276
 H        -7.0402625124      -11.0034344893        0.8466225767
 H       -11.4814437096       -4.9014305533       -3.5292179182
 H       -11.9822252029       -5.2989131897       -5.0996035075
 H       -10.8730141250       -4.0029801020       -4.9049829108
 H       -10.5863946967       -7.0513389014       -6.4234527345
 H       -11.1851883203       -7.5199446225       -4.8496414283
 H        -9.5526609305       -7.8878460740       -5.3019660906
 H        -5.0081152496       -0.8726833106       -7.5067171133
 H        -4.9071926796       -1.7491443359       -5.9641722114
 H        -6.1658720537       -0.8531798211       -6.1394889878
 H        -7.9232642581       -3.1052122155       -8.8621373971
 H        -7.7523915986       -1.4234620828       -8.3781702698
 H        -8.4016512285       -2.6009876908       -7.2264077596
 H        -1.7872276344       -2.4799397440      -12.0323644985
 H        -1.4176796122       -2.2013404512      -13.7743620638
 H        -2.6684022928       -3.3592318601      -13.2967800728
 H        -3.0621500596        0.9344336019      -13.0407200421
 H        -1.5574898898        0.0402316957      -13.0817043652
 H        -2.4936756782        0.0369966388      -11.5515579520
 H        -1.4387435917        3.5656102146      -16.1993057776
 H        -2.9596840401        4.3095168342      -16.7149478143
 H        -1.6587495770        4.1415426728      -17.8121474823
 H        -3.8359209688        1.5345608794      -19.3097354159
 H        -3.2612947339        3.0621862530      -19.5229237606
 H        -4.6190424584        2.7678542836      -18.5273105226
 H         3.3864951922       -2.0085406090      -20.3010696502
 H         2.2341676801       -0.7407001877      -20.7532037508
 H         2.0583558642       -1.6847252599      -19.2965720263
 H         4.5084294705       -1.3230040164      -17.6296783894
 H         3.0380493307       -0.4708190912      -17.1835282101
 H         4.4135003100        0.5461890647      -17.5308892165
 H         8.9683588516        1.3034630236      -22.7637077552
 H         9.9499227539        2.3455133892      -21.7546091944
 H         9.7092691766        2.9473853777      -23.2730343632
 H         9.1232728930        4.9249747799      -21.2774309916
 H         9.1392177858        3.5735929826      -19.9964127399
 H         7.7923380329        4.7987502323      -20.1996486930
 H         2.9288935873        4.2181632209      -27.2824971236
 H         1.9579775775        3.9517098174      -25.9799379171
 H         3.4279457387        2.9975021072      -26.1264058578
 H         5.1524621804        6.6881620702      -26.3286976164
 H         4.7470150635        5.5271295206      -27.5316359673
 H         5.8605085039        5.1030364143      -26.1589860304
 Na       -6.5676557798       -4.2993909958       -3.0681736782
 Na        3.9773516463        2.9810562711      -21.2737062748
