232

 C         1.5416909520        6.5856875597      -26.3279825164
 C         2.7623385042        6.5001596449      -25.4663113269
 O         3.0011163121        7.4154116126      -24.6971729845
 C         3.7808528201        5.1747970609      -25.5210515222
 C         4.3323411891        4.9544876079      -24.0918032380
 O         3.9325779730        3.9372140422      -23.5211441750
 C         5.5301299177        5.9264017191      -23.4932336458
 C         6.2717052564        5.2272952670      -22.2573902622
 C         6.9555151721        3.9860900901      -22.7596152776
 O         6.8197993471        3.6623696999      -23.9516553865
 C         7.8705730417        3.1720973767      -21.7148004806
 C         6.8339999477        2.2756126679      -20.7754151745
 O         5.9549410003        2.7907626983      -20.1931538811
 C         6.9593725032        0.7791623606      -20.8504702880
 C         6.0169315915        0.0889483919      -19.8398046819
 C         4.5102649551        0.3347620706      -20.3177991189
 O         4.2158328933        0.7188458392      -21.4728905479
 C         3.3579016279       -0.0087090063      -19.3622687414
 C         2.3438521737        1.1924027705      -19.3321995274
 O         2.6167114617        2.3397451315      -19.7200324331
 C         0.8731550896        0.7938321924      -18.8961328038
 C         0.0584339772        1.7779731538      -18.0700605362
 C        -1.4592545515        1.3565177005      -18.3113716845
 O        -1.6694754377        0.4180371011      -19.0746629518
 C        -2.6418214307        2.2893622421      -17.6151139953
 C        -3.1807757213        1.5838046744      -16.3362636406
 O        -2.6613372279        1.7639219195      -15.2614124223
 C        -4.2938592843        0.4364453400      -16.5021895134
 C        -4.6628937862       -0.1357208767      -15.1410147783
 C        -3.6692661955       -1.1567854918      -14.6184236193
 O        -3.0057263368       -1.7702661739      -15.4230638690
 C        -3.3178725553       -1.2881848376      -13.0785106530
 C        -4.5035476422       -1.4599531075      -11.9663908174
 O        -5.5965634610       -1.0908504004      -12.3774331629
 C        -4.1817914725       -2.0332331365      -10.6791838178
 C        -5.4533962028       -2.0820138740       -9.8465935013
 C        -5.2831490482       -2.9562253747       -8.5267627092
 O        -4.5074381365       -3.9087390797       -8.5183150943
 C        -6.2834834608       -2.5821543964       -7.3353261578
 C        -6.2705983136       -3.8343207493       -6.3447412711
 O        -5.8574279998       -3.7088205409       -5.1930639195
 C        -6.7230697486       -5.2198269570       -6.8843990995
 C        -7.4608827192       -6.0225094992       -5.7786804598
 C        -8.6388484924       -5.0911972776       -5.2846760832
 O        -8.6305071436       -3.9369308171       -5.5987141979
 C        -9.9181578481       -5.8031231850       -4.6134469825
 C        -9.4788323639       -6.3127112441       -3.2505153574
 O        -8.4455776922       -5.8090779778       -2.7351525471
 C       -10.2616555634       -7.5254284177       -2.5725641906
 C        -9.7549159695       -7.8857769870       -1.2122277526
 C        -8.4428754931       -8.8752697666       -1.2814046635
 O        -8.0002392730       -9.2177325205       -2.3170418225
 C        -7.8244326987       -9.1571062142        0.1438820041
 C        -6.3455306667       -8.4204498903       -0.0526282433
 O        -6.0204762363       -7.4881390341        0.6531373315
 C        -5.2216257200       -9.0576518061       -1.0233927135
 C        -3.9529343514       -8.2065025301       -0.9618025497
 C        -4.0430641870       -7.0023946517       -1.9388584246
 O        -5.1301708132       -6.6902249208       -2.4055962838
 C        -2.7371429590       -5.9719764397       -2.2348929323
 C        -3.0899857271       -4.5303478147       -2.7702285459
 O        -4.1877250416       -4.1935505748       -2.9603207299
 C        -1.9109827378       -3.7248446055       -3.2062961404
 C        -2.2899425890       -2.3060802571       -3.8559858896
 C        -2.0945631920       -1.2393446119       -2.8435282718
 O        -1.5560698763       -1.5535054705       -1.8216603609
 C        -2.8112256150        0.1468741133       -3.0531463970
 C        -4.1938877127        0.0983078044       -2.2693768762
 O        -5.2567040841        0.3772162046       -2.7979148084
 C        -4.1168754922       -0.1384197361       -0.6690932303
 C        -5.5584961297       -0.3461902173       -0.2370329496
 C        -6.2743749128       -1.6256221198       -0.7204652150
 O        -5.7287226130       -2.5201188090       -1.2917447002
 C        -7.8504005878       -1.7190302670       -0.6000443993
 C        -8.2834318354       -1.7158184972       -2.0352649897
 O        -8.1321969087       -2.6508786675       -2.8153130746
 C        -8.8710070452       -0.4622898599       -2.6616063274
 C        -9.4547631444       -0.7911932760       -4.0267540867
 C       -10.3883568175        0.3874823734       -4.5007909920
 O       -10.0535993465        1.5611697911       -4.3079795784
 C       -11.7193905908        0.1835569013       -5.2660594216
 C       -11.5305864145       -0.7440790864       -6.5416053757
 O       -12.2552998503       -1.7404957699       -6.6561022843
 C       -10.5592141020       -0.3332403479       -7.6469080900
 C       -12.7177865287       -0.5422252775       -4.3674960586
 C       -12.3849725431        1.5416419577       -5.7462397772
 C        -8.2719046747       -3.1219516876       -0.0135650867
 C        -8.5449934440       -0.6030373019        0.2665318089
 C        -2.0974393451        1.3042128052       -2.4149476725
 C        -3.0801873002        0.2637421286       -4.5613968335
 C        -1.9314935389       -5.6651719155       -0.8359778642
 C        -1.8056912341       -6.7554610883       -3.1714906305
 C        -8.4932293734       -8.6520245381        1.3846356403
 C        -7.4531298545      -10.6462739952        0.2310677874
 C       -11.0905650423       -4.7748496727       -4.4686945314
 C       -10.3498777220       -6.9755387071       -5.5475802206
 C        -5.9429202156       -1.2492937522       -6.6917297484
 C        -7.6690815625       -2.4470093252       -8.0832607844
 C        -2.2892433627       -2.4085579021      -12.8058881158
 C        -2.5341318658        0.1137716344      -12.7286333936
 C        -2.0169321941        3.6595291152      -17.2051363248
 C        -3.8043456832        2.4161663467      -18.5477807008
 C         2.8754990455       -1.4640366253      -19.7269920249
 C         3.9536843695       -0.1561577284      -17.8557903836
 C         8.7767048593        2.2860735036      -22.6166108354
 C         8.5802027235        4.1492450306      -20.8623831678
 C         2.9707225403        3.9467864565      -25.9156611841
 C         4.8546710289        5.4637749401      -26.5951435448
 H         0.6611501311        6.8269038701      -25.7495859353
 H         1.2730160795        5.6482905927      -26.8099569912
 H         1.6445954291        7.4191793473      -26.9850364343
 H         5.1088941251        6.9102763572      -23.1687182653
 H         6.1475879674        5.9719560870      -24.3973617358
 H         5.5065528191        4.9889913243      -21.4326411828
 H         6.8873768685        6.0572566824      -21.8744833972
 H         7.9795866620        0.4893137104      -20.5648038814
 H         6.7394749784        0.3864153610      -21.9365249627
 H         6.1523099884        0.4140369290      -18.7409787371
 H         6.1556515391       -0.9084965433      -19.7675864160
 H         0.8629845509       -0.0798770246      -18.2563756163
 H         0.3569910397        0.5817038630      -19.7817147096
 H         0.3434627548        2.8093000928      -18.2424039339
 H         0.2063182031        1.5841322866      -17.0527118936
 H        -3.8984873982       -0.3266270393      -17.1076970998
 H        -5.2817679910        0.6809316211      -16.9518655287
 H        -5.6653506604       -0.6210947440      -15.3601780740
 H        -4.8219762999        0.6387301925      -14.3601715365
 H        -3.4076626504       -1.5341937963      -10.2301989302
 H        -3.7433416127       -3.0736598413      -10.7681812004
 H        -6.1737815254       -2.4788990403      -10.5454251394
 H        -5.8369626590       -1.0635343865       -9.6978837515
 H        -5.8851820054       -5.7845670901       -7.2005874139
 H        -7.4508945697       -5.0955010075       -7.6143054125
 H        -6.7459207308       -6.2725971413       -4.9679670391
 H        -7.8065753801       -7.0066197791       -6.2559292049
 H       -10.1813012070       -8.4766497141       -3.1944484751
 H       -11.3324085857       -7.2821299260       -2.6220763838
 H       -10.6242050014       -8.4028292874       -0.6815048038
 H        -9.5372619663       -6.9386757400       -0.5834496998
 H        -5.6603117431       -9.1074408177       -2.0213192566
 H        -5.0897279719      -10.0038869937       -0.4794281662
 H        -2.9690838062       -8.7848605645       -1.1289471537
 H        -3.8238318399       -7.7607643984        0.0355555299
 H        -1.4471157580       -4.1751147969       -4.0654632573
 H        -1.0995407227       -3.4278752791       -2.4083762126
 H        -3.3424175292       -2.3895450586       -4.2295060701
 H        -1.6531435123       -2.0449275446       -4.6603617091
 H        -3.7014295487        0.6639602627       -0.0315406204
 H        -3.5268879381       -1.0046423483       -0.2695435810
 H        -6.1245447224        0.4773236084       -0.7192171339
 H        -5.6397855312       -0.4127535323        0.8451908558
 H        -8.2928156968        0.4668468578       -2.7722223484
 H        -9.6528498183       -0.2357377847       -1.7922699171
 H        -9.9454833150       -1.7467776523       -4.1778538736
 H        -8.6578530092       -0.7098335102       -4.8456598896
 H        -9.5599415509       -0.4169177137       -7.2225036264
 H       -10.7776140568        0.6570840427       -7.9344908354
 H       -10.6580073607       -1.1200376365       -8.3746257477
 H       -12.4825425454       -1.5946283061       -4.2919780461
 H       -13.7992469517       -0.4173999431       -4.6310509613
 H       -12.5808531739       -0.2617384961       -3.2980512404
 H       -11.7736304345        2.2642106800       -6.2148115737
 H       -12.7342220125        2.1382028596       -4.9346424058
 H       -13.1923095467        1.3160173665       -6.4336030560
 H        -9.3514132838       -3.1127328766        0.3866949403
 H        -7.6021512637       -3.4928269912        0.8276792666
 H        -8.3164400185       -3.8368338797       -0.8455946167
 H        -9.5835090568       -0.8695870647        0.2298161097
 H        -8.4040169055        0.4015310972       -0.1736825847
 H        -8.2089625726       -0.4610232402        1.2318704787
 H        -2.7646391493        2.1130968709       -2.3212092149
 H        -1.2785450958        1.7060781161       -2.9334911518
 H        -1.7759318052        0.9483532734       -1.4111679373
 H        -3.4653968050        1.2557574365       -4.8465084331
 H        -3.9394432863       -0.3540159036       -4.9364187789
 H        -2.1724282124        0.2819294780       -5.1399724402
 H        -1.6633941294       -6.5400165645       -0.3096106196
 H        -2.4038868953       -4.8043569289       -0.2234148460
 H        -0.8774402633       -5.2850001722       -1.0601216616
 H        -1.8191795014       -7.8088565272       -2.9061739970
 H        -0.8233423891       -6.4070440260       -3.0856796500
 H        -2.2184012268       -6.6471386359       -4.2077756139
 H        -8.0538705233       -7.6855961817        1.5707021905
 H        -8.2274471437       -9.2123076892        2.2608536258
 H        -9.5552446779       -8.7398400795        1.4127936665
 H        -6.8872664830      -10.9159485389       -0.6654575486
 H        -8.2853915107      -11.3818838841        0.1208476172
 H        -6.8439334243      -10.8015473067        1.1639378747
 H       -11.7778152920       -5.1516478484       -3.7016520754
 H       -11.7014340895       -4.6805532075       -5.3884146199
 H       -10.7934745230       -3.7286937390       -4.2190349336
 H       -10.3930962994       -6.4919372764       -6.5695613764
 H       -11.3556350499       -7.2196907859       -5.1802519296
 H        -9.6133967815       -7.8698887141       -5.5004784345
 H        -5.6387225133       -0.4411762869       -7.4099719703
 H        -5.2432650716       -1.3034238357       -5.8134693911
 H        -6.8013217398       -0.8273171118       -6.1642963160
 H        -7.9641440621       -3.2171320976       -8.7444305544
 H        -7.8003051895       -1.5716442860       -8.6737454084
 H        -8.4409068266       -2.3583532979       -7.3261618808
 H        -1.7175950584       -2.1824062983      -11.8363175556
 H        -1.6253484416       -2.5751441560      -13.5878959411
 H        -2.9347229529       -3.2837686824      -12.7638201380
 H        -3.2855367625        0.8725337063      -12.8885337171
 H        -1.7060673968        0.2954625792      -13.4040681054
 H        -2.2624184113        0.0887894442      -11.6084722047
 H        -1.7841546541        3.8301575827      -16.2032233571
 H        -2.9511851291        4.3275006381      -17.4050807262
 H        -1.2528745770        4.1449388973      -17.8230485662
 H        -4.2350676858        1.5224764949      -18.9336386572
 H        -3.6799461780        2.9279470280      -19.5099464300
 H        -4.6955456231        2.8906303914      -18.1075868385
 H         3.5675765671       -2.1618099859      -19.2037036477
 H         2.9145263059       -1.6732476640      -20.7648228755
 H         1.8204522894       -1.6992148924      -19.3668463011
 H         4.6135149610       -0.9832878857      -18.0155058898
 H         3.1665944679       -0.4663857863      -17.1554627913
 H         4.4959549872        0.7147013113      -17.5405330944
 H         8.2626883846        1.8535748830      -23.4781442661
 H         9.2323454131        1.4355619879      -22.0814501233
 H         9.6334148140        2.8129076740      -22.8411150684
 H         9.2376930166        4.9067196830      -21.3709555510
 H         9.2125704792        3.5735068536      -20.2117808799
 H         7.9453521544        4.6901729633      -20.2609396238
 H         2.5265973534        3.9006538394      -26.9595037240
 H         2.0881844631        3.7322942203      -25.2226144823
 H         3.6319134486        3.1164340839      -25.8181699971
 H         5.4820234562        6.3450013139      -26.2014492660
 H         4.3700512786        5.7835849841      -27.5087601276
 H         5.4961565407        4.5883640437      -26.7790403588
 Na       -6.3771092404       -4.4737174662       -2.9383867428
 Na        4.0113261337        2.9284540153      -21.6443683656
