232

 C         1.7051204172        6.5937230365      -26.2226321175
 C         2.6423281871        6.4516043506      -25.0871052510
 O         2.5833170242        7.2640108397      -24.1772467797
 C         3.6222762199        5.1841613698      -25.1254001615
 C         4.1468142253        4.9590628980      -23.7036484543
 O         3.6123652924        4.2238412323      -22.9340205615
 C         5.3534772052        5.8953284398      -23.3660016799
 C         6.2675396031        5.3205144988      -22.3876649847
 C         6.8022778502        3.9211235250      -22.8346677998
 O         6.3232223605        3.3092493612      -23.7357652752
 C         7.7929834288        3.1520426945      -21.7703973973
 C         6.8276174439        2.2931387379      -20.8648348341
 O         5.8758605918        2.9108022467      -20.3382125338
 C         6.9980857492        0.7779220348      -20.7318532593
 C         5.9295988302        0.2763278528      -19.7237328270
 C         4.4415248237        0.3543088826      -20.3045586458
 O         4.2296935296        0.5174200396      -21.4624402011
 C         3.2642901846        0.0567388179      -19.2680428305
 C         1.9868027201        0.8769075893      -19.6750766593
 O         2.0694489968        1.6602539494      -20.6053134724
 C         0.6687915258        0.5949953752      -18.9818145151
 C        -0.2346862762        1.7590001305      -18.6330929063
 C        -1.6885017166        1.3038527580      -18.3914029272
 O        -2.0701794953        0.2275164208      -18.7320281723
 C        -2.6759942760        2.3243653521      -17.8244404278
 C        -3.0623997267        1.6551264726      -16.4069354388
 O        -2.4079133358        1.9746309675      -15.4387424306
 C        -4.0271018129        0.4377498880      -16.3360087253
 C        -4.2942981075       -0.1056606726      -14.9087533185
 C        -3.4411751123       -1.3012684147      -14.3616998569
 O        -3.0854327264       -2.2226219280      -15.0550562305
 C        -3.0464253612       -1.1869405698      -12.8764688098
 C        -4.3882557626       -1.3132432740      -12.0645119401
 O        -5.4349670450       -0.7159560239      -12.3755348816
 C        -4.4364510728       -2.2875603877      -10.8081703068
 C        -5.6816904448       -1.9658161788       -9.8648107515
 C        -5.4025729194       -2.6206443614       -8.4898679625
 O        -4.3433137770       -3.1227169165       -8.2723922312
 C        -6.6216811200       -2.6106750884       -7.3982369011
 C        -6.4136219535       -3.6560857836       -6.2538898687
 O        -6.0268367075       -3.3173067443       -5.1781610631
 C        -6.5607563734       -5.1899850753       -6.5633186455
 C        -7.5513851970       -5.9933872941       -5.7442060620
 C        -8.7726217416       -5.1991037531       -5.4198851570
 O        -8.8852887605       -3.9936316432       -5.6568872155
 C        -9.8462671495       -5.8397608031       -4.5354891350
 C        -9.1352278839       -6.5336151764       -3.2735752952
 O        -8.1313755584       -6.1966786022       -2.7359880052
 C        -9.9750732387       -7.7251671283       -2.6745836604
 C        -9.5311468682       -8.1934747403       -1.3297387049
 C        -8.2041452827       -8.9125507129       -1.3210259576
 O        -7.7982675363       -9.3398652157       -2.4442586490
 C        -7.3544743964       -9.1872232101       -0.0510267614
 C        -5.9953070553       -8.5320112868       -0.1074293586
 O        -5.6850217564       -7.7618529332        0.7392603371
 C        -5.0162416064       -8.9279218629       -1.3000186735
 C        -3.7606393601       -7.9417620026       -1.2631610013
 C        -4.0782134356       -6.6748065364       -2.1022528368
 O        -5.2028441110       -6.3956296108       -2.4321562116
 C        -2.8019267942       -5.8195915001       -2.3153793087
 C        -3.0216498899       -4.4467099904       -3.0340252414
 O        -4.0754362754       -3.7775558513       -3.0858345315
 C        -1.8595645489       -3.8827131024       -3.9171776730
 C        -2.2530639250       -2.4558213447       -4.3170060366
 C        -1.9505492325       -1.4745296482       -3.0420635842
 O        -1.5890235248       -2.0177744011       -2.0121350562
 C        -2.3946771806        0.0444733339       -2.9826689484
 C        -3.8371885135        0.1521319922       -2.1473177318
 O        -4.7855654474        0.5807330277       -2.7448518938
 C        -4.0180422093       -0.4388430509       -0.7726497484
 C        -5.5214687688       -0.5581329070       -0.3193162702
 C        -6.1631744060       -1.8586554259       -0.8924504938
 O        -5.5070277525       -2.8273975454       -1.1701434859
 C        -7.7343065629       -1.7882881166       -0.8870600960
 C        -8.2002473745       -1.6510378525       -2.4117755725
 O        -7.9342645459       -2.5864779310       -3.1653179075
 C        -9.1209928613       -0.4718973901       -2.8300022775
 C        -9.7986421542       -0.6198977680       -4.1821102788
 C       -10.6817086277        0.5818137120       -4.5040645284
 O       -10.2615625448        1.6541333007       -4.2018779049
 C       -12.0661946548        0.2456756411       -5.2442183394
 C       -11.4818686179       -0.7686848271       -6.4266643965
 O       -11.6382528440       -1.9309197172       -6.2224267479
 C       -10.8611383369       -0.0875245043       -7.6517712418
 C       -13.1145768598       -0.4731121574       -4.4085065859
 C       -12.7028901830        1.6049158797       -5.6497217999
 C        -8.2347425798       -3.2662579971       -0.5858221765
 C        -8.3213239448       -0.6903680466        0.0230216653
 C        -1.4292772877        0.8675307454       -2.1140386226
 C        -2.5490721149        0.6545151044       -4.4079076279
 C        -2.1608586911       -5.3192396035       -0.9753992987
 C        -1.7213377737       -6.6311523129       -3.1083995320
 C        -8.1780495970       -8.6110266277        1.2018055844
 C        -7.0157837702      -10.7157647106        0.1856232787
 C       -10.8524184852       -4.8025535874       -3.9593977685
 C       -10.6735137648       -6.9148871725       -5.4429584730
 C        -6.6404048355       -1.1240999538       -6.8199144335
 C        -7.9467006509       -2.8382879037       -8.1611826618
 C        -2.1089122634       -2.3986214525      -12.6072542197
 C        -2.3307321803        0.1599796094      -12.5067392757
 C        -2.0991492496        3.8339563025      -17.5194012935
 C        -4.0630438674        2.5199636719      -18.5786600011
 C         2.8999067879       -1.4876880952      -19.3256243464
 C         3.6766261601        0.3329291583      -17.7878528325
 C         8.7562156124        2.2702143319      -22.6444945282
 C         8.5691792052        4.2413456609      -20.9400312087
 C         2.8599919177        3.8768766881      -25.5927780902
 C         4.8445916952        5.4192287303      -26.1337756480
 H         1.0673288650        7.4396134818      -25.9477682386
 H         1.0661318400        5.7405227765      -26.2567065781
 H         2.1639074935        6.8591049981      -27.1695887438
 H         4.9733508883        6.9066623000      -23.1816257986
 H         5.8197054400        6.0017857151      -24.3317634252
 H         5.6670139646        5.2053027598      -21.4119267536
 H         7.1420863003        6.0025094030      -22.3547773013
 H         8.0679287906        0.4796806479      -20.5570112619
 H         6.6427352337        0.2857319574      -21.6834407635
 H         5.7605949070        0.9635743452      -18.9790724971
 H         6.1165288246       -0.6932338062      -19.1888095267
 H         0.7580350468        0.1382869684      -18.0189532643
 H         0.0856681779       -0.0254258607      -19.6002450925
 H        -0.3599819323        2.4046030205      -19.4950064190
 H         0.1541271833        2.2937867367      -17.8019551010
 H        -3.4971876519       -0.3247257608      -16.9281854429
 H        -4.9518849032        0.6212628544      -16.8256453353
 H        -5.3074753881       -0.4730353963      -14.6830734030
 H        -4.2120348919        0.8219990181      -14.2330505735
 H        -3.4845849739       -2.4209441083      -10.2654154071
 H        -4.6359203443       -3.2270454126      -11.1071943315
 H        -6.6002478960       -2.0879846375      -10.3337369583
 H        -5.7409489872       -0.8434364863       -9.7770899475
 H        -5.6727118057       -5.7223489255       -6.4441685547
 H        -6.7917238991       -5.3725746266       -7.5890241454
 H        -7.0032416944       -6.3124629639       -4.7990500024
 H        -7.8556498999       -6.9910605259       -6.1777802413
 H        -9.7787632632       -8.4980035454       -3.4696821701
 H       -11.0727374008       -7.6463236240       -2.7263380997
 H       -10.3630776211       -8.8473061024       -0.8903401124
 H        -9.4806648153       -7.2454140864       -0.6752154453
 H        -5.7060224911       -8.7823997970       -2.1325310468
 H        -4.7135310026       -9.9542171602       -1.1547408225
 H        -2.8087649887       -8.4158259475       -1.3692977371
 H        -3.6372487128       -7.5119900995       -0.1715217918
 H        -1.7461790228       -4.5079064440       -4.8677970407
 H        -0.9448273354       -3.7171779573       -3.3359586192
 H        -3.2790420057       -2.4366386161       -4.4824428634
 H        -1.8060700656       -2.0899348008       -5.2914516853
 H        -3.4680520092        0.1436535876       -0.0011176204
 H        -3.4297300960       -1.3672825736       -0.5547659876
 H        -6.0694467982        0.2599879249       -0.8592380001
 H        -5.6541293331       -0.5299520258        0.7605808340
 H        -8.3492892037        0.3778875490       -2.6480816195
 H        -9.6635943323       -0.2576994142       -1.9614970882
 H       -10.4798502935       -1.5267587415       -4.2185360998
 H        -9.0305060524       -0.7977068668       -4.9482448767
 H        -9.8715222119       -0.0104357694       -7.3281484853
 H       -11.3280550196        0.9138116865       -7.9205447660
 H       -11.0362816394       -0.6991514208       -8.5068877471
 H       -12.6989513249       -1.2605105388       -3.7667936326
 H       -13.9137343796       -0.9881706015       -4.9809313298
 H       -13.7045178039        0.1990294066       -3.7443132613
 H       -12.1895225440        2.1006665829       -6.4431714828
 H       -12.8817302234        2.2945977509       -4.8326580438
 H       -13.6432070262        1.4464373774       -6.1207197822
 H        -9.1090880074       -3.5104154940       -1.1877078744
 H        -8.4002235048       -3.3337474640        0.4922803391
 H        -7.4608815393       -4.1008093341       -0.6476145912
 H        -9.3966179759       -0.7840293201        0.0866432142
 H        -8.1336327549        0.2856094413       -0.2247109840
 H        -8.0729410560       -0.9748034979        1.0534637332
 H        -1.8495571311        1.9158018978       -2.0432136373
 H        -0.4339193580        0.8941656030       -2.5248326919
 H        -1.4150426472        0.5399249074       -1.1343103956
 H        -2.9635436190        1.6810014641       -4.4507513308
 H        -3.0908543293       -0.0230687825       -5.0567441352
 H        -1.5485056446        0.5657114309       -4.9693148830
 H        -1.9557982156       -6.1251638740       -0.1367849415
 H        -2.5920022871       -4.4421382015       -0.5291686632
 H        -1.1746840539       -4.9054830476       -1.2178732046
 H        -1.2239518332       -7.3759997635       -2.4797970271
 H        -0.9338733861       -6.0078877163       -3.6312354276
 H        -2.2238167891       -7.1646982412       -3.8798959280
 H        -8.4877358388       -7.5610541146        1.1497646275
 H        -7.5849976053       -8.6908656834        2.1215723056
 H        -9.0232554257       -9.2536181787        1.3039761336
 H        -6.2083035230      -10.9537946426       -0.5836208192
 H        -7.8886797061      -11.3974648790        0.1320010134
 H        -6.5789095472      -10.8355625653        1.1979326201
 H       -11.5190956189       -5.2450780916       -3.1968014708
 H       -11.4321180731       -4.2762163770       -4.7442730437
 H       -10.3111709180       -4.0664553489       -3.3805620778
 H       -11.4064990984       -6.2044713016       -5.8934922230
 H       -11.2684219649       -7.6831373460       -4.8092089985
 H        -9.9880542546       -7.4188520212       -6.1444800715
 H        -7.0930139670       -0.3393772164       -7.4496751146
 H        -5.6361763698       -0.7746567873       -6.6502304800
 H        -7.3206705881       -0.9574916447       -5.9827333179
 H        -8.1575294003       -3.8392572830       -8.5305334235
 H        -8.1810427474       -2.1715537695       -8.9553116200
 H        -8.7606254364       -2.5830511134       -7.5178886132
 H        -2.0507237383       -2.5384841449      -11.5538523477
 H        -1.1108754489       -1.9649701668      -12.9361505753
 H        -2.5193165256       -3.2511974232      -13.1746298121
 H        -2.8593601583        1.1123965070      -12.7149590023
 H        -1.2751603642        0.0548718590      -12.8448985341
 H        -2.3359792031        0.1623904847      -11.4170858309
 H        -0.9876651891        3.7958635125      -17.1229147504
 H        -2.5348937903        4.3585948913      -16.7390132209
 H        -1.9295489649        4.5178782140      -18.3461179936
 H        -4.6488847363        1.6753517699      -18.9667440692
 H        -3.9156042268        3.0290642082      -19.5169308014
 H        -4.8388000632        3.1787363037      -18.2132531223
 H         3.7669739476       -2.1763106827      -19.4146598544
 H         2.2392556506       -1.7303242636      -20.2224730750
 H         2.3100225622       -1.7139661505      -18.5001031786
 H         4.2760909409       -0.5311821972      -17.4382841920
 H         2.8104979153        0.4815115257      -17.2289173844
 H         4.3244470232        1.1937635087      -17.7958960053
 H         8.2916006669        1.3717402877      -22.9202641339
 H         9.6070336999        2.0161636075      -22.0923758131
 H         8.9219568948        2.8057920159      -23.6324594416
 H         9.2575598333        4.8158826616      -21.3976428707
 H         9.2050296342        3.8276385392      -20.2008186993
 H         7.8624638509        4.8276227171      -20.3353362289
 H         2.5302913771        3.9368401103      -26.6620111132
 H         2.1222549692        3.4436992903      -24.9430693315
 H         3.6593009541        3.0329948017      -25.6188925948
 H         5.1124918547        6.4715883274      -26.2089636886
 H         4.4379389902        5.1630702761      -27.1433659472
 H         5.7845875646        4.7924300251      -25.9765222523
 Na       -6.2732268340       -4.2302312886       -2.9776320707
 Na        3.6825785208        2.8304792150      -21.2326634993
