232

 C         1.5809304064        6.7428596009      -26.3978454444
 C         2.4382740625        6.4808338522      -25.1335855014
 O         2.3266187812        7.1869312657      -24.1618742848
 C         3.4620153445        5.2000297771      -25.0162851421
 C         4.0006842155        5.0197285832      -23.5593782644
 O         3.3151516992        4.3409777585      -22.8484111858
 C         5.1499501687        5.8786594798      -23.1219041684
 C         6.2091802120        5.1696925611      -22.2212660220
 C         6.8559270915        3.9124823195      -22.8127950639
 O         6.5133850478        3.3884343213      -23.8351174491
 C         7.8419374583        3.0773617792      -21.7648256499
 C         6.7886454663        2.3683816920      -20.8071292065
 O         5.9626809652        2.9715583866      -20.2771219419
 C         6.7918836753        0.8638951486      -20.6580377086
 C         5.7804302145        0.1885045561      -19.6037692585
 C         4.4104343176        0.2961755349      -20.1608904324
 O         4.3000033483        0.4870179854      -21.3501802586
 C         3.1848245452       -0.0398028838      -19.2585520915
 C         1.8481258831        0.6740577824      -19.7344322539
 O         1.8198754856        1.5986269229      -20.5378157015
 C         0.4920560262        0.2669954834      -19.0509928276
 C        -0.4409340283        1.5253439442      -18.9925166686
 C        -1.9055266431        1.2267932624      -18.5283417487
 O        -2.3359786211        0.1624953264      -18.8208815752
 C        -2.7302406868        2.2417539681      -17.6752095353
 C        -2.8995203606        1.6394715689      -16.3414856249
 O        -2.3056930828        2.1332838658      -15.3873925054
 C        -3.8218060076        0.4081740184      -16.1970808302
 C        -4.1870200782        0.0611972851      -14.7612070766
 C        -3.3552420977       -1.1292273727      -14.2982249947
 O        -3.0318977794       -2.0032656018      -15.0530304891
 C        -2.9799359311       -1.2080370975      -12.7803135709
 C        -4.3189245929       -1.3066756882      -11.9012016372
 O        -5.2372264031       -0.5142671764      -12.1750140630
 C        -4.3964319202       -2.3535958144      -10.8085323609
 C        -5.6179340738       -1.9863719458       -9.9640320232
 C        -5.4501796498       -2.4776164412       -8.3766268137
 O        -4.3713029573       -2.9151212206       -7.9775653858
 C        -6.7762366970       -2.4850412207       -7.5866060917
 C        -6.5709331475       -3.5682659935       -6.3745085489
 O        -6.0838758879       -3.2037871638       -5.3392678174
 C        -6.7186035803       -5.0524834178       -6.6787360424
 C        -7.4930198060       -5.8063258044       -5.6389466953
 C        -8.7369092793       -5.0484949986       -5.2636243319
 O        -8.9349613610       -3.9549948380       -5.7612486615
 C        -9.7740704141       -5.8625760155       -4.3610351822
 C        -9.0748567999       -6.5740661811       -3.2185806781
 O        -8.0500608689       -6.2697069741       -2.6493540484
 C        -9.9136216304       -7.7950288834       -2.6510530702
 C        -9.2741745580       -8.2640770321       -1.2552066274
 C        -7.9878229195       -9.0289893197       -1.3218650251
 O        -7.5394422509       -9.5673807401       -2.3587517950
 C        -7.1959509969       -9.2433136169        0.0198690593
 C        -5.7881793064       -8.5846635454       -0.1252099727
 O        -5.4979767134       -7.7442115961        0.6895234339
 C        -4.8736253801       -8.7959670898       -1.3568316000
 C        -3.7019257855       -7.7888309972       -1.4732669903
 C        -3.8804433153       -6.4696729811       -2.2918127446
 O        -5.0374081051       -6.1760509153       -2.5015201211
 C        -2.6273957237       -5.4922552524       -2.4944629615
 C        -2.9641658657       -4.2803358587       -3.3786387362
 O        -4.0632528491       -3.7149680673       -3.3750032903
 C        -1.9326994243       -3.8811865473       -4.3928557679
 C        -1.7275851145       -2.3168109047       -4.4316964606
 C        -1.8147324071       -1.6852175004       -3.0774096261
 O        -1.7041225676       -2.3559172623       -2.0672931866
 C        -2.1470824263       -0.0478440320       -2.8675745397
 C        -3.6666199815       -0.0310172919       -2.2576665345
 O        -4.5454650536        0.4958330062       -2.8920474517
 C        -4.0074336531       -0.7406539248       -0.9409546725
 C        -5.4278010940       -0.7554489647       -0.4801583005
 C        -6.2297456731       -2.0269955064       -0.9027947983
 O        -5.6380489637       -2.9810996016       -1.3144176529
 C        -7.7940505214       -1.8257651634       -0.8471287841
 C        -8.2140968383       -1.5308610008       -2.2446223331
 O        -7.8332957421       -2.2860956023       -3.1467672382
 C        -9.1225727612       -0.3497495412       -2.6747747043
 C       -10.0337294507       -0.6301444138       -3.8537231672
 C       -10.8168271064        0.6159250262       -4.3861381430
 O       -10.5034017429        1.7302819160       -4.0485887137
 C       -12.0528694214        0.2341533911       -5.2819921874
 C       -11.6496351920       -0.7392171727       -6.4897497698
 O       -11.4584674625       -1.8848332320       -6.3374873427
 C       -11.4054945860       -0.0199814460       -7.8681335552
 C       -13.0931388119       -0.4452641311       -4.4036378601
 C       -12.7278019931        1.5200758097       -5.8344562027
 C        -8.3090114673       -3.2864160970       -0.4555400498
 C        -8.3847119544       -0.7430546149        0.1406816090
 C        -1.1954111816        0.5220380776       -1.8743752572
 C        -2.2409661164        0.5952192960       -4.3240091319
 C        -2.1656345653       -4.9999854388       -1.1606463933
 C        -1.4370024140       -6.3717775951       -3.1781407792
 C        -7.8216570879       -8.7224566738        1.2284149495
 C        -7.0571101233      -10.8915544644       -0.0173714022
 C       -10.8239174856       -4.8586458687       -3.6765736502
 C       -10.5424641744       -6.7934603456       -5.3795523760
 C        -6.9685415886       -1.0357249800       -7.0896754429
 C        -7.9097922255       -2.8676446269       -8.5178720447
 C        -1.9874962610       -2.4030944594      -12.5294987645
 C        -2.3116073508        0.1178407849      -12.2210368291
 C        -2.1004083771        3.8039149443      -17.5956284001
 C        -4.0603289445        2.1821200836      -18.4818730937
 C         3.0743215362       -1.5404203673      -19.1583828570
 C         3.2274900658        0.5332447157      -17.7909772589
 C         8.7272030122        2.0842681084      -22.5800411610
 C         8.6117231123        3.9968818836      -20.8563320228
 C         2.6524936023        3.9415826482      -25.2578561555
 C         4.5486677117        5.4823222452      -26.1254135939
 H         1.8019384997        7.8148668376      -26.7221424034
 H         0.5277390614        6.6005835235      -26.2038158337
 H         1.9132001996        6.0930207649      -27.2326157067
 H         4.6042856337        6.6771206493      -22.4737641416
 H         5.5147281035        6.5148242040      -23.9276813514
 H         5.8571131625        4.9579393370      -21.2060407179
 H         6.9280809017        5.9154450876      -22.2435482121
 H         7.7185014189        0.4454903844      -20.3767871807
 H         6.6142610253        0.6175612671      -21.8024849682
 H         5.8695537097        0.7347064227      -18.6262389266
 H         5.9450264738       -0.8622292028      -19.4419693432
 H         0.5509781519       -0.1048918498      -17.9711691026
 H        -0.0282205449       -0.5648735814      -19.6224215018
 H        -0.3823672209        1.8410950288      -20.0757566934
 H        -0.0096986513        2.2432807603      -18.3355849574
 H        -3.2986080914       -0.4819361511      -16.5036964476
 H        -4.7790568928        0.3899642605      -16.8022850589
 H        -5.2312610640       -0.0974975718      -14.6563633243
 H        -3.9691930035        0.8877008574      -14.0885757416
 H        -3.4542069711       -2.3743056466      -10.1538185497
 H        -4.4987393395       -3.3734760571      -11.2211648376
 H        -6.4908698698       -2.2607573701      -10.5020402016
 H        -5.6942290897       -0.8673641798      -10.1691056310
 H        -5.6691338672       -5.4201785270       -6.7069070811
 H        -7.0555621240       -5.4168996276       -7.6600685552
 H        -6.9014087000       -5.9268954355       -4.7835155163
 H        -7.7571651975       -6.8065357321       -5.8858598216
 H       -10.0425740017       -8.6138213897       -3.3550779735
 H       -10.9040470124       -7.4393439407       -2.5102440071
 H        -9.9379360715       -8.9523773887       -0.8153926463
 H        -9.1757910542       -7.4288379129       -0.5824555126
 H        -5.5524917890       -8.5908552375       -2.2206663529
 H        -4.5547413641       -9.8813144036       -1.3265779695
 H        -2.7440056163       -8.3176963538       -1.5485583922
 H        -3.5471789385       -7.3208500632       -0.4923314287
 H        -2.2356694791       -4.2049023222       -5.3802993163
 H        -0.8798793787       -4.2998419210       -4.1934344279
 H        -2.4699580502       -1.7867644568       -5.0834054468
 H        -0.7505439457       -2.0193582295       -4.9251108004
 H        -3.4105687181       -0.3945090108       -0.1160064423
 H        -3.6520297896       -1.7800119897       -0.8873334505
 H        -5.9035150462        0.1525581648       -0.9341813653
 H        -5.4263005881       -0.6154142651        0.5846682257
 H        -8.4247765345        0.4920680243       -2.8728372277
 H        -9.6498705511       -0.0263557203       -1.7392406162
 H       -10.6876539280       -1.4830110810       -3.7546793673
 H        -9.3468987902       -0.8477214631       -4.7159812636
 H       -10.9383392667        0.8756983001       -7.5057690436
 H       -12.3249673196        0.1555527840       -8.4188092826
 H       -10.8924961440       -0.6394549710       -8.6088291005
 H       -13.0439921752       -1.4706642621       -4.4722250104
 H       -14.1451722271       -0.2018036668       -4.6055237155
 H       -13.0158422965       -0.1849820828       -3.3417462180
 H       -12.0151582027        2.1445603734       -6.3230351072
 H       -13.3503393668        2.0847129606       -5.0811484067
 H       -13.5295713322        1.3489532049       -6.6105043858
 H        -9.3580727702       -3.2941926614       -0.2828880164
 H        -7.7441979486       -3.6917804858        0.3489129356
 H        -8.1269006555       -4.0259894785       -1.2399827253
 H        -9.5136213668       -0.9372635625        0.1184509693
 H        -8.3758849514        0.2527768451       -0.2598667761
 H        -8.1354413821       -0.7464270396        1.2255870155
 H        -1.4710584675        1.5352280277       -1.3803477972
 H        -0.2202299805        0.5124497179       -2.3437358712
 H        -1.0918262892       -0.1511696767       -1.0284635293
 H        -2.3500746522        1.6478958615       -4.2424267891
 H        -3.0568577051        0.1339717273       -4.8649104618
 H        -1.3423338682        0.2270384933       -4.9249010233
 H        -1.8957470100       -5.7973720837       -0.4536893489
 H        -2.8643139439       -4.4415157943       -0.5994528971
 H        -1.3356639951       -4.3864220252       -1.2911393536
 H        -1.1661320168       -7.2580207709       -2.6151886203
 H        -0.5231572726       -5.7704437963       -3.2746236603
 H        -1.6401351141       -6.7434747222       -4.1775627208
 H        -8.0190620405       -7.6175311249        1.1406731324
 H        -7.1226857623       -8.9843341088        2.0627862482
 H        -8.7934280639       -9.1821520774        1.3682956143
 H        -6.8026052397      -11.1638193565       -1.0247777068
 H        -7.9150943164      -11.3360184103        0.4196206475
 H        -6.2187767509      -11.1826347320        0.5717173293
 H       -11.5617581457       -5.4301383404       -3.1185035555
 H       -11.3301869300       -4.3160558286       -4.4825953178
 H       -10.4091884009       -4.1793697617       -2.9638031205
 H       -10.5566130468       -6.3666055057       -6.3198885557
 H       -11.5303229703       -6.8189246575       -4.9941120407
 H       -10.1308137955       -7.7811890506       -5.3876016235
 H        -6.7813687945       -0.1994792682       -7.7750815915
 H        -6.1946919659       -0.8621243474       -6.3745366213
 H        -7.9118591820       -0.8035771340       -6.7133485442
 H        -7.8694609986       -3.6483402819       -9.3112179014
 H        -8.4568724619       -1.9915213962       -8.8342111677
 H        -8.7674894779       -3.2645650475       -7.9159018873
 H        -1.3553134136       -2.2357192278      -11.7643968249
 H        -1.5766304821       -2.5827794718      -13.5095619969
 H        -2.6457736960       -3.2033144076      -12.2721035269
 H        -3.0312106932        0.9097754109      -12.2573789485
 H        -1.4474100250        0.4201177851      -12.8151741483
 H        -1.9208285608        0.0046017545      -11.1514439405
 H        -1.6988245372        4.1756736369      -16.6408927054
 H        -2.8398802778        4.5197998751      -17.8006224621
 H        -1.3359019923        4.0167616923      -18.2872883170
 H        -4.4315646431        1.2098491026      -18.8000863602
 H        -4.1541565910        2.8709238347      -19.3084623896
 H        -4.9717681235        2.5145233410      -17.9452323028
 H         3.7352536681       -1.9807056761      -18.3949974291
 H         3.3732373020       -2.0110889114      -20.0991573978
 H         2.1121269795       -1.8282056137      -18.9919895102
 H         4.3098792259        0.4326232858      -17.4502427561
 H         2.5850528188       -0.0002214788      -17.1335120173
 H         3.0193608376        1.5960009349      -17.9043522632
 H         8.2909478386        1.9109824697      -23.5778849555
 H         8.8545831477        1.1886064926      -21.9823303193
 H         9.7231570266        2.6462442765      -22.8781619828
 H         9.1127246020        4.7541518229      -21.4613939236
 H         9.4097358690        3.5835209386      -20.2169889199
 H         8.0497071165        4.6307800380      -20.0679093940
 H         2.4336748439        3.9398204586      -26.3419555039
 H         1.8328546259        3.7934859550      -24.6587917861
 H         3.3429618563        3.0888294864      -25.1304561154
 H         5.1566636569        6.3344974285      -25.9379376196
 H         4.2110571835        5.6081760972      -27.1048898092
 H         5.2130516653        4.5910029103      -26.1558029623
 Na       -6.5411953718       -4.3187996123       -3.2540433183
 Na        3.7599980399        2.8932520819      -21.1620966548
