232

 C       -22.8501526041       -5.9895254507       -2.5332171099
 C       -21.4205137666       -5.8174985494       -3.0697902706
 O       -20.4463401502       -6.0151745080       -2.3739916897
 C       -21.0472446927       -5.3126163541       -4.6073733984
 C       -20.4773857757       -3.9166497688       -4.5329346076
 O       -20.4539414064       -3.2703462703       -3.4783201496
 C       -20.0106332824       -3.2685598387       -5.8420808529
 C       -18.8603801085       -2.2404078003       -5.5398459350
 C       -17.7231601754       -2.9274189666       -4.7398038978
 O       -17.5750402291       -4.1467884321       -4.5356578932
 C       -16.5633241063       -1.9824756093       -4.0932924799
 C       -16.2715287322       -2.7807120134       -2.8019634637
 O       -17.1176759941       -2.7699292096       -1.9022047735
 C       -14.8807739717       -3.4411162171       -2.5920162685
 C       -14.8803715452       -4.1013409412       -1.2182280004
 C       -15.3820208269       -5.5821602546       -1.2508195225
 O       -16.5003959833       -5.8925891097       -1.6456175878
 C       -14.5828243253       -6.6676472756       -0.4684799576
 C       -13.1501233188       -7.0097216195       -1.1268715847
 O       -12.4461071845       -6.1167513879       -1.5868166876
 C       -12.6494472005       -8.4983568043       -0.8908261269
 C       -11.2041212817       -8.5026882542       -1.4793478359
 C       -10.7456554162       -9.9457677035       -1.7096833650
 O       -11.1339840514      -10.7899567076       -0.9673451555
 C        -9.6800860265      -10.2929052877       -2.7881796991
 C        -8.4133601584       -9.2021983501       -2.8643250409
 O        -8.4452271894       -8.2218526142       -2.1219348221
 C        -7.0834295849       -9.4491640780       -3.5772849142
 C        -6.3397283791       -8.0811140116       -3.6177374466
 C        -6.7616916703       -7.1822518600       -4.7761073770
 O        -7.5527707048       -7.5459716413       -5.6265741105
 C        -6.0523663396       -5.6714278208       -4.8264808550
 C        -4.8272515593       -5.7594913048       -5.7360739408
 O        -3.6694330139       -5.9488524790       -5.3389483722
 C        -5.0393070324       -5.8342972442       -7.3131194028
 C        -4.7353877655       -4.5144280481       -8.0119153197
 C        -4.7019915101       -4.6153879838       -9.5738720126
 O        -4.7008603951       -5.6570373496      -10.1773520145
 C        -4.5302264127       -3.3365323260      -10.4742692564
 C        -2.9685819177       -3.3575639747      -10.6226844199
 O        -2.3598734744       -3.0228320102       -9.6546116817
 C        -2.3573203395       -3.7946283209      -11.9680786815
 C        -0.9567755913       -4.6173219344      -11.8517098973
 C         0.0682520678       -4.0898396188      -12.9240065294
 O        -0.1167588917       -3.0845791732      -13.6043682616
 C         1.5624556310       -4.6789495688      -12.9546859224
 C         2.4154211992       -3.3928314365      -13.3338908129
 O         3.0493400981       -3.2989334135      -14.3559075234
 C         2.5331778099       -2.1605090828      -12.2489707193
 C         3.8579371913       -1.4372311341      -12.2043227841
 C         3.6323335585        0.1291608815      -11.7948370412
 O         2.6346559683        0.7764813670      -11.8007783986
 C         5.0546565906        0.9443796061      -11.3357803726
 C         5.1232732426        2.1343839020      -12.2948686942
 O         5.9406477065        2.1952033616      -13.2343142968
 C         4.0155376995        3.1913585354      -12.2939523244
 C         4.4300421669        4.6905815918      -11.9095594972
 C         5.3464297961        5.2725329871      -13.0175287699
 O         5.0652737518        4.9181227294      -14.1499313964
 C         6.4351127128        6.3157541667      -12.7721950614
 C         6.9299422428        6.8340318935      -14.2881572990
 O         6.3851169746        7.7722167739      -14.8281930056
 C         8.2118614494        6.1922947896      -14.8633246010
 C         8.2977021013        6.6627067800      -16.2661449252
 C         7.1514944877        6.0847257800      -17.2582570729
 O         6.5942519171        5.0179045511      -17.0678321318
 C         6.7891634162        6.8569108650      -18.6258642627
 C         8.0760046950        7.3257400955      -19.3212794646
 O         8.7809195334        8.0669937074      -18.7307967930
 C         8.4007064861        6.8445945890      -20.7920456878
 C         9.8878777293        6.3876634092      -20.9306220674
 C        10.0545868888        4.8886316196      -20.1787078775
 O        10.1310246502        4.7719601454      -18.9841261374
 C        10.1540261034        3.4551973296      -20.9300664117
 C         9.1096165994        2.5459619638      -20.0316134869
 O         7.9143413467        2.7216566291      -20.0580028711
 C         9.7468691914        1.4805829595      -19.0558611923
 C         8.5998488761        0.4048771593      -18.6403149247
 C         7.3222782543        1.0438356345      -17.9639058509
 O         7.4030651643        1.8317392875      -17.0196817096
 C         5.8570697341        0.3903712819      -18.2544542778
 C         4.7963351942        1.6163062640      -18.4197603769
 O         4.2719142984        2.1400872742      -17.4621010641
 C         4.3971645435        2.1955451676      -19.8777680222
 C         5.8748448275       -0.6238785791      -19.4875592397
 C         5.7658504185       -0.3899523014      -16.9320551413
 C         9.5084631591        3.4692997192      -22.3232306366
 C        11.5476819149        2.8265478953      -20.9539333603
 C         5.8413583171        5.9473184545      -19.4078984341
 C         5.9029343419        8.0942358310      -18.1492987753
 C         6.0025325447        7.5939314859      -11.9126131241
 C         7.5984487222        5.7113324519      -12.0245208696
 C         4.6679155026        1.5005538307       -9.9261555658
 C         6.3853316094        0.1897450677      -11.2277738993
 C         2.1246521134       -5.4289551559      -11.7517399747
 C         1.4901487166       -5.6247824120      -14.1975327193
 C        -5.3140726374       -3.5448180110      -11.8804133750
 C        -5.0951894239       -2.1138897227       -9.7534597023
 C        -6.9559160509       -4.5605326436       -5.5525852658
 C        -5.7291711048       -5.1332654098       -3.3632960890
 C        -9.0430789490      -11.6537240926       -2.4423623089
 C       -10.4015346968      -10.3936903959       -4.1554117944
 C       -14.0870366849       -6.1369009403        0.9565493695
 C       -15.4208761210       -7.9318224533       -0.3258706081
 C       -15.3185452180       -2.0131702865       -5.0869316314
 C       -16.8983450090       -0.5345436616       -3.7242474888
 C       -20.0038554274       -6.3462038052       -5.1834176639
 C       -22.2994999037       -5.2694289682       -5.4890783037
 H       -23.6216621686       -6.0620065592       -3.3252999150
 H       -22.8884690703       -5.2287702944       -1.8296253627
 H       -22.9145619693       -6.9444369093       -2.0795208279
 H       -20.8338365226       -2.7210664128       -6.2430823707
 H       -19.7470321244       -4.0809719117       -6.5407167019
 H       -19.2401172474       -1.4245881574       -4.9381806199
 H       -18.5414552117       -1.7401605949       -6.4705812250
 H       -14.0434183639       -2.7753386954       -2.5348153386
 H       -14.6962268925       -4.2351906694       -3.3971242915
 H       -15.5971370630       -3.5653432792       -0.5263975703
 H       -13.9017316757       -4.1623328233       -0.8459999006
 H       -13.3141169890       -9.1273893227       -1.4469112895
 H       -12.6904928000       -8.6841675760        0.2183786736
 H       -10.4031729481       -8.1037211522       -0.8756303497
 H       -11.1217724299       -7.9132888130       -2.3645672631
 H        -7.1623715904       -9.8690474303       -4.6399124978
 H        -6.4558241487      -10.1860562641       -2.9754924944
 H        -5.2830633942       -8.3042724018       -3.7914198730
 H        -6.5211964558       -7.6009987336       -2.6280328492
 H        -6.0752230687       -6.0573455774       -7.5010467128
 H        -4.4248114567       -6.6518431337       -7.7033595644
 H        -3.6890840068       -4.1419222657       -7.7924635536
 H        -5.3929174969       -3.6271850245       -7.7047070922
 H        -2.0802576271       -2.8684835269      -12.4941846189
 H        -2.9077260184       -4.4576552165      -12.6404666059
 H        -1.2090063999       -5.5919742230      -12.1957540392
 H        -0.4407375250       -4.7543042710      -10.9553901776
 H         2.3472613718       -2.5986967995      -11.2570788592
 H         1.7626704226       -1.4345020310      -12.5337897366
 H         4.3394543594       -1.2480954377      -13.2094630269
 H         4.4961867369       -1.9029022841      -11.4800892474
 H         3.0794425695        2.8695608791      -11.7970244001
 H         3.6003480627        3.1455825703      -13.3313616897
 H         5.0820906920        4.6675603501      -11.0279817840
 H         3.6472197373        5.4100114746      -11.6966296599
 H         8.2208188671        5.1452906789      -14.6848758798
 H         9.1644543192        6.5304209332      -14.4501061555
 H         9.2085610766        6.0649698811      -16.7021202094
 H         8.4050934182        7.7640013779      -16.3813618238
 H         8.1127402599        7.7748861254      -21.3028921660
 H         7.8503168738        5.9184801230      -21.0823975109
 H        10.4729117797        7.1413963632      -20.4065018451
 H        10.1691772365        6.2209732412      -21.9984388055
 H         9.9695297662        2.2003124912      -18.1368406077
 H        10.6236480404        0.8338993676      -19.1549217434
 H         8.9075551464       -0.2922233536      -17.8382115137
 H         8.3542298304       -0.1253022291      -19.5592342339
 H         3.6540699929        1.3290154909      -20.0554041387
 H         5.1393850366        2.3427235470      -20.6896489375
 H         3.8662054056        3.1234184194      -19.6712601440
 H         5.0279700271       -1.3093363637      -19.5724715655
 H         6.6087572166       -1.4030176396      -19.2889523527
 H         6.1891554708       -0.2356144393      -20.4923921246
 H         6.4194219419       -1.2202131266      -16.8902345693
 H         4.8640410153       -1.0304666015      -16.9051556109
 H         5.7429012312        0.2930692950      -16.0435835169
 H         9.1928969485        2.4715134584      -22.6457446856
 H        10.1042707568        3.7669675290      -23.1080808706
 H         8.6186660002        4.0389468205      -22.3709508014
 H        11.3784442069        1.8267741300      -21.3053174171
 H        12.0052770139        2.8595425308      -20.0109463543
 H        12.1175926455        3.3092819906      -21.6828038606
 H         4.9376861911        5.9053219908      -18.7936856003
 H         6.2018948328        4.9296025434      -19.5560903880
 H         5.5596967513        6.5180381858      -20.3393266061
 H         6.5373465167        8.6869477942      -17.4418996784
 H         5.0009249931        7.7396305435      -17.6668822328
 H         5.6055332167        8.8060609618      -18.9046245496
 H         6.7456722370        8.3480736702      -12.0284781398
 H         5.7794571320        7.3884536107      -10.8343322766
 H         5.0120995401        7.9253739239      -12.1711848427
 H         7.3367237894        5.5754635401      -10.9673260920
 H         8.4979164683        6.4456829241      -11.9808171304
 H         7.9565949291        4.7890946895      -12.5010810948
 H         5.5614154148        1.8702271531       -9.3921903390
 H         4.1534018820        0.8044837757       -9.2646893690
 H         3.8986935168        2.2825040092      -10.0582339566
 H         6.2823303629       -0.4546866253      -10.3357411931
 H         7.0039726001        0.9321659478      -10.7880748890
 H         6.7068061298       -0.2899814045      -12.1685296228
 H         1.9617876663       -4.9209132217      -10.7553172109
 H         3.2032280169       -5.3621006099      -11.8737331725
 H         1.9043158722       -6.4960287776      -11.7998513289
 H         0.6020088313       -6.1903203635      -14.3081625163
 H         2.3185610386       -6.3014972947      -14.1041562755
 H         1.6742987560       -5.0476431068      -15.0584964442
 H        -6.3781037668       -3.1882104067      -11.9868849979
 H        -5.2774296800       -4.6751065012      -12.0704569650
 H        -4.7622253401       -3.1107008767      -12.7416525213
 H        -5.0741484380       -1.2500946917      -10.4460207895
 H        -4.4872900653       -1.8477432375       -8.8716054389
 H        -6.1537623788       -2.4030533655       -9.4687787356
 H        -7.6943429318       -4.9132829668       -6.2878452390
 H        -6.3204388826       -3.8869125716       -6.0733793631
 H        -7.4618173220       -4.0014778762       -4.8539395432
 H        -6.5820131476       -5.1488528271       -2.6993994840
 H        -5.2877709573       -4.1379699715       -3.4080980958
 H        -4.9719997219       -5.8122392375       -2.9696172388
 H        -9.6915287691      -12.5760979321       -2.4875939708
 H        -8.3701495266      -11.5981624104       -1.6238703857
 H        -8.3640322182      -11.8062918876       -3.2277864135
 H       -11.1773633665      -11.1216488871       -4.0593000115
 H        -9.7971816402      -10.6588292621       -5.0622485909
 H       -10.7641138739       -9.3839846275       -4.4022458267
 H       -14.7883411234       -5.5238059058        1.4165429045
 H       -13.1508227000       -5.5541974226        0.6981074846
 H       -13.7448618004       -6.9994776585        1.4684368985
 H       -15.7725952149       -8.2947359209       -1.3202587649
 H       -16.3873545742       -7.7810206417        0.1964800843
 H       -14.9677008523       -8.6736007516        0.2339780950
 H       -15.1934346448       -2.9804527918       -5.5542795201
 H       -14.3804648409       -1.6150368668       -4.6560715605
 H       -15.6322181925       -1.2916748304       -5.9109176926
 H       -18.0353626695       -0.3603329098       -3.4822212838
 H       -16.6251471065        0.2305226384       -4.4334134447
 H       -16.2965976546       -0.1619447544       -2.9430986636
 H       -19.0188312181       -6.1857392691       -4.6488864170
 H       -19.9397740633       -6.3262986384       -6.2507671549
 H       -20.3044518612       -7.3141481105       -4.9921999321
 H       -21.9914312279       -5.0550262803       -6.4787787696
 H       -22.9694261722       -4.4379182780       -5.1326276208
 H       -22.8474805712       -6.2719598657       -5.4854304805
 Na      -18.3720107580       -4.7229869959       -2.3808933351
 Na        5.9054966205        3.2219203161      -15.6652545396
