232

 C         1.9652568589        7.5154133731      -26.0223202308
 C         2.3774381952        6.7890044313      -24.6598288808
 O         2.1709580493        7.1785917726      -23.5882524250
 C         3.0253193105        5.2878958909      -24.9681927034
 C         3.6322264394        4.7130028661      -23.6515348188
 O         3.4187980519        3.5612012820      -23.2087241401
 C         4.6682694022        5.7320894315      -23.0263006734
 C         5.6550465977        5.1328538245      -22.0378786703
 C         6.3397147613        3.8189917135      -22.4931220223
 O         6.2013351542        3.3054981927      -23.5674810632
 C         7.3969435793        3.1189722481      -21.5224460345
 C         6.4700624199        2.2776572410      -20.5058980603
 O         5.6025989414        2.8074496535      -19.7973812602
 C         6.6524931842        0.7440277152      -20.4019759976
 C         5.6430383393        0.1331992653      -19.4679989363
 C         4.0941329205        0.3026154226      -20.0437526099
 O         3.9899614688        0.6861464224      -21.1722573993
 C         2.9314300555       -0.1537413891      -19.0692945705
 C         1.6325144547        0.6606802748      -19.3392704632
 O         1.6716652611        1.7381905130      -19.9463518628
 C         0.2971915796        0.1670414942      -18.8397603962
 C        -0.7253482924        1.3353412370      -18.5711604290
 C        -2.1930838940        0.9270898820      -18.9503460575
 O        -2.5151214148        0.0803317102      -19.7865067431
 C        -3.4083970124        1.6653318444      -18.0913895513
 C        -3.2165284587        1.4463956722      -16.5171784497
 O        -2.3367036239        2.0584002207      -15.9470547575
 C        -4.2520281084        0.5240991072      -15.8088031275
 C        -3.8157110171        0.5139382317      -14.2754219226
 C        -2.7664878043       -0.5572664746      -13.9622309025
 O        -2.1019190603       -1.0450018244      -14.8402637968
 C        -2.3643027938       -0.8938246309      -12.4844636633
 C        -3.6495814234       -0.8500570582      -11.4630806499
 O        -4.3016053709        0.1402514844      -11.5107626169
 C        -4.0273738101       -1.9990604120      -10.4629907827
 C        -5.2128949522       -1.4964218165       -9.5487538724
 C        -5.4628181617       -2.3762757943       -8.3001861871
 O        -4.6958247349       -3.2771962644       -7.9422817226
 C        -6.9509089845       -2.3826947975       -7.6676240843
 C        -6.9295028223       -3.5277171550       -6.6555899523
 O        -6.8174302372       -3.2568977455       -5.4607564513
 C        -7.2003427980       -4.9887559694       -7.0048516418
 C        -7.6885158222       -5.7904420950       -5.7636869241
 C        -9.0233099536       -5.2839286323       -5.3306755793
 O        -9.6231842575       -4.4384545878       -5.8585773706
 C        -9.7414454478       -6.0054752669       -4.0988401680
 C        -8.7841282371       -6.4900178929       -2.9567423747
 O        -7.6628257222       -5.9906517007       -2.7521024120
 C        -9.3403724323       -7.3665663116       -1.7714210457
 C        -8.2101896683       -7.8024652927       -0.8243918997
 C        -7.7447210439       -9.2638626354       -0.9331101663
 O        -8.4894350657      -10.1007276727       -1.3850624069
 C        -6.3045524892       -9.7560300461       -0.2127906468
 C        -5.2697488385       -8.6422589487       -0.8131115116
 O        -4.5914829877       -7.9062895406       -0.0601237378
 C        -5.0772152533       -8.7450536396       -2.3555899554
 C        -3.7181112451       -7.9130041424       -2.7019450430
 C        -3.8541321164       -6.4383648704       -3.1405077806
 O        -4.9257244617       -6.0884140469       -3.5756904540
 C        -2.6000685452       -5.5477607017       -3.1100236750
 C        -2.8553408130       -4.1856946439       -3.9117969305
 O        -3.9310211152       -3.6027937154       -3.8047538504
 C        -1.7033488593       -3.3859664059       -4.6657760153
 C        -1.8190082260       -1.8521720401       -4.5607763629
 C        -1.2246195911       -1.3074939575       -3.3145897613
 O        -0.4631186627       -1.9938552343       -2.6193423561
 C        -1.6896051171        0.1474420362       -2.8757626346
 C        -3.3165993386        0.0083394640       -2.5801458003
 O        -4.0189336153        0.3981465171       -3.4952817776
 C        -3.7702084640       -0.9136494718       -1.3207428073
 C        -5.2188020963       -0.7739924053       -0.8662909709
 C        -6.0957441271       -1.9471593797       -1.1823333776
 O        -5.6595460282       -3.0295779997       -1.4764405440
 C        -7.6563385888       -1.8308476976       -0.8209560343
 C        -8.5518200636       -2.1242814255       -2.0948272480
 O        -8.1931811797       -2.8054362328       -3.0254374859
 C        -9.8932112326       -1.2317315041       -2.2288272409
 C       -10.4245211082       -1.3403124032       -3.6656371607
 C       -10.9379216845        0.1355196574       -4.0806670829
 O       -10.4450851719        1.1269916611       -3.5208682362
 C       -12.2408479790        0.2588455335       -5.1054112860
 C       -11.9023074644       -0.2036008309       -6.6328739446
 O       -10.8036567054       -0.5913971036       -7.0942287923
 C       -13.0248881347       -0.3270128735       -7.8497229276
 C       -13.4510585470       -0.5102731630       -4.5029382528
 C       -12.7112766894        1.7551393788       -5.1923167497
 C        -7.9719686656       -2.9215619041        0.2616856270
 C        -7.9677956570       -0.4345090560       -0.1703300248
 C        -0.9995456778        0.4381438362       -1.5844921262
 C        -1.3007226062        1.3054621984       -3.8048145588
 C        -2.2894429672       -5.1820325682       -1.6392631304
 C        -1.2727885751       -6.1602339103       -3.7261462542
 C        -6.4926844319       -9.6497805194        1.3155312750
 C        -5.8932785472      -11.0893272265       -0.6980237294
 C       -10.6864159575       -4.9799327303       -3.4502389943
 C       -10.5427052532       -7.2477439787       -4.5577377479
 C        -7.0997785445       -1.0383251166       -6.9489233894
 C        -8.0986347903       -2.5699756760       -8.6596003804
 C        -1.3927583593       -2.0582395628      -12.4793126344
 C        -1.4976828471        0.2823094630      -11.8576137435
 C        -3.1933000576        3.2057246356      -18.2946170415
 C        -4.8435054980        1.2958512528      -18.5653764939
 C         2.6682331918       -1.6349946484      -19.1528300614
 C         3.3089538216        0.1986217291      -17.5392054152
 C         8.3115347418        2.2641362665      -22.5002748913
 C         8.1889825724        4.1576497637      -20.8389582775
 C         1.7901832639        4.3744135565      -25.4048587866
 C         4.1381426140        5.1589822947      -25.9106835498
 H         1.1347221511        7.1203423103      -26.5578049198
 H         2.8226564256        7.4873147510      -26.7239197567
 H         1.7029951169        8.5746154638      -25.8015755743
 H         4.1985699418        6.4649101899      -22.4546885065
 H         5.0737523201        6.1546075753      -23.9534138185
 H         5.0925011047        5.0591482377      -21.0494533025
 H         6.4850535053        5.8407701151      -21.6839733875
 H         7.7149532826        0.4283918704      -20.1505070050
 H         6.5172419564        0.3162629234      -21.2966513349
 H         5.6523404273        0.5893935453      -18.5432772793
 H         5.8141530836       -1.0195122270      -19.5111956357
 H         0.4615938988       -0.5124005188      -18.0164618341
 H        -0.1125213278       -0.3626760417      -19.6169457680
 H        -0.4058237581        2.2947448810      -18.9981080908
 H        -0.7012839076        1.5764349347      -17.5302480383
 H        -4.2108754175       -0.3976188816      -16.3444234209
 H        -5.3080911961        0.8457285048      -15.8194091571
 H        -4.6627213441        0.5787005010      -13.5904000198
 H        -3.2966743848        1.5245746565      -14.1185979357
 H        -3.1920280416       -2.3267925541       -9.8030454090
 H        -4.2772063931       -2.8531561730      -11.0004458351
 H        -6.0272111211       -1.4669623313      -10.1891234219
 H        -4.9353898649       -0.4562619097       -9.2317659032
 H        -6.3661120055       -5.5504603742       -7.3701794283
 H        -8.0168241396       -5.0151506953       -7.7249236903
 H        -6.8725269154       -5.8034449657       -4.9831577987
 H        -7.9521425700       -6.8419403056       -6.0958132544
 H        -9.7675166870       -8.3218193531       -2.1987968733
 H       -10.0558325045       -6.7632501441       -1.2307965072
 H        -8.5110879124       -7.6575634476        0.2522783579
 H        -7.2801115830       -7.1141424134       -0.9256033778
 H        -5.9018797525       -8.3573726831       -2.9150712254
 H        -5.0402021882       -9.7456757963       -2.7962702453
 H        -3.1296576941       -8.4032326465       -3.4973114615
 H        -3.0318967018       -7.9872095021       -1.7814081503
 H        -1.7575418901       -3.7425783796       -5.7335703616
 H        -0.8417954783       -3.7521136064       -4.3109476222
 H        -2.8323429108       -1.7198196111       -4.6113945646
 H        -1.3032386657       -1.4426806735       -5.4466274775
 H        -3.0281014374       -0.5926503225       -0.5971429434
 H        -3.6734187458       -1.9660883047       -1.6813169518
 H        -5.5749449874        0.2754762772       -1.1520768659
 H        -5.2434738807       -0.5932464891        0.1998212576
 H        -9.5822523349       -0.1844455699       -2.0324037443
 H       -10.5526952127       -1.6320246854       -1.5283025745
 H       -11.3698007947       -1.8953772470       -3.7115901971
 H        -9.6647924478       -1.7333226027       -4.3742755211
 H       -12.9714346797        0.6568269065       -8.3222820588
 H       -14.0329560470       -0.4044842472       -7.5368859636
 H       -12.5849683307       -1.0499607024       -8.5501723761
 H       -13.2168871545       -1.6636275916       -4.4969733332
 H       -14.3921649088       -0.3587143990       -4.9901680959
 H       -13.6324356861       -0.1150365258       -3.5055732313
 H       -11.9416628446        2.4285145111       -5.6550941474
 H       -12.8788437133        1.9967072006       -4.1668543716
 H       -13.6079695554        1.7963665155       -5.7379030504
 H        -8.9917887738       -3.0197423695        0.5717317611
 H        -7.1992521549       -2.8340160258        1.0106691996
 H        -7.6840313139       -3.8659466371       -0.1445921099
 H        -9.0093722793       -0.3371481384        0.0590557031
 H        -7.8670055992        0.3662811191       -0.9256696309
 H        -7.3645642828       -0.2516188596        0.7711359722
 H        -1.4405230331        1.2193296654       -1.0370366036
 H         0.1085433334        0.6954550597       -1.6470854625
 H        -0.9890773217       -0.4704232183       -0.9518954822
 H        -1.9906680946        2.0942494105       -3.3386686319
 H        -1.6732328586        1.0486568524       -4.8252867318
 H        -0.2379271441        1.6042484022       -3.7232174204
 H        -2.5413525098       -6.0033505203       -0.9798714963
 H        -3.0128814757       -4.3657462720       -1.4009271170
 H        -1.3823018346       -4.6433613580       -1.2819768142
 H        -0.8517376119       -7.0250477437       -3.1867781744
 H        -0.4815130548       -5.3604576879       -3.5938347944
 H        -1.3238243079       -6.4314768298       -4.7772036141
 H        -6.3959344812       -8.6204548021        1.5437537561
 H        -5.6211335027      -10.0374903959        1.8380114608
 H        -7.2958126946      -10.2637066603        1.6410411614
 H        -5.8577304146      -11.0336652575       -1.7610335870
 H        -6.6270587767      -11.8126759513       -0.3982075370
 H        -4.9946894547      -11.3009003470       -0.1752728178
 H       -11.4636657115       -5.4221753982       -2.8288822756
 H       -11.1003698426       -4.4530269704       -4.2944630655
 H       -10.1083832990       -4.2793262153       -2.8905878279
 H       -11.2277569694       -7.0220251085       -5.4434594797
 H       -11.3127096638       -7.6523848796       -3.8604674975
 H        -9.9945310547       -8.1730839295       -4.8307794048
 H        -7.1287143063       -0.2634618035       -7.6654392793
 H        -6.3160095623       -0.7981115632       -6.1960833583
 H        -8.1636697666       -0.9320861281       -6.5184681464
 H        -7.9482301494       -3.3455316851       -9.3961182209
 H        -8.3180809915       -1.7038639987       -9.2882848199
 H        -9.0744626877       -2.7016719044       -8.2618448935
 H        -0.9238302354       -2.1306090547      -11.5271003362
 H        -0.5786786208       -2.1661098187      -13.2099074445
 H        -2.0851054215       -3.0082772721      -12.5026836658
 H        -1.9938887054        1.2836123154      -11.8987765213
 H        -0.4548361105        0.2851136616      -12.2996630812
 H        -1.3059363937        0.2524963599      -10.8251799405
 H        -2.3492333332        3.3954191839      -17.6970290940
 H        -4.0996040521        3.8395755390      -17.8948929575
 H        -2.9969077771        3.5491723552      -19.3487859193
 H        -5.3625164642        0.3151476976      -18.4529854374
 H        -5.1446434645        1.5225410185      -19.6198295567
 H        -5.5695850305        1.9303221508      -18.0113248194
 H         3.4858615305       -2.1021693610      -19.5755830894
 H         1.8799394600       -1.8807525777      -19.8273200713
 H         2.4542873187       -2.1528750953      -18.1518659082
 H         4.1790272251       -0.4349390555      -17.3384811035
 H         2.4691830013       -0.1636073422      -16.9506557691
 H         3.5425133298        1.2300809512      -17.2399340789
 H         7.8036802901        1.3206233879      -22.6079591352
 H         9.2240018107        2.0047020493      -21.9266320087
 H         8.4696536002        2.7204650622      -23.3947840903
 H         8.5665849063        4.8462232773      -21.5650153451
 H         9.1614067090        3.9704945032      -20.4630542037
 H         7.6834688129        4.6387773510      -20.0794900961
 H         1.3792165292        4.9204758803      -26.2170945819
 H         1.0405476318        4.4858749698      -24.5261359117
 H         2.0105110330        3.2886801232      -25.4822968848
 H         4.5524525826        6.1656724658      -26.1234689888
 H         3.8404352155        4.7171588191      -26.9138938078
 H         4.9633560327        4.5497622364      -25.6126762049
 Na       -6.2937409862       -4.1286803070       -3.3269964755
 Na        3.3977651357        2.6637240461      -21.2380613909
