232

 C         2.0464488878        7.4690820113      -26.0157070159
 C         2.4391802784        6.7848184216      -24.7170520660
 O         2.0220613449        7.2429319010      -23.6635230150
 C         2.9752422215        5.3922870033      -24.8828809744
 C         3.6294465602        4.7794004126      -23.6301105525
 O         3.2936709538        3.7392086462      -23.0970574563
 C         4.7811080945        5.6695992890      -23.0554758901
 C         5.6779768232        5.0140982386      -22.0416545195
 C         6.3052998942        3.7699225346      -22.5817557240
 O         5.9812801189        3.2376805763      -23.6169088952
 C         7.3540916688        3.1152517094      -21.5030024685
 C         6.4302303019        2.2995567851      -20.4541760289
 O         5.5807270749        2.8411558464      -19.8721218597
 C         6.6940940426        0.8079910356      -20.3753356446
 C         5.6208262121        0.0057030001      -19.5436243815
 C         4.1926024410        0.1513181010      -20.0461635456
 O         4.0301824797        0.4673597995      -21.2035229264
 C         3.0135908171       -0.2952746951      -19.0432393500
 C         1.6296570304        0.7016943084      -19.2985897952
 O         1.8252909100        1.6881438781      -19.9217971995
 C         0.2174743694        0.2663913875      -18.7602895497
 C        -0.8465651720        1.3346932516      -18.6122258214
 C        -2.3458757868        0.8922556210      -18.8691646053
 O        -2.4834002171        0.1650581977      -19.8112310253
 C        -3.4655719079        1.7061985346      -18.0717719897
 C        -3.3142474460        1.4196505820      -16.5173671952
 O        -2.4187888270        2.0676435816      -16.0201794439
 C        -4.1848017987        0.5581249762      -15.7025224145
 C        -3.8246082663        0.5060955416      -14.1630870892
 C        -2.7132485129       -0.4742429429      -13.9208950675
 O        -2.1106592069       -1.0385222646      -14.8045407761
 C        -2.3543910813       -0.8301475028      -12.3665238121
 C        -3.5774507698       -0.8323761393      -11.4255091464
 O        -4.2498002015        0.1877234040      -11.3337930166
 C        -3.9044850185       -1.9605176219      -10.4782913433
 C        -5.0780501744       -1.5066674888       -9.4872298083
 C        -5.5753233113       -2.5015241144       -8.5280349420
 O        -4.8420517071       -3.3210414045       -8.0001791399
 C        -6.9943813132       -2.3305840920       -7.7101561700
 C        -7.0719881256       -3.5442828894       -6.5502689659
 O        -6.7425968876       -3.1932545707       -5.4459045297
 C        -7.1895004994       -5.0150980686       -7.0546665344
 C        -7.6822975286       -5.9533235479       -5.8241983393
 C        -9.0710528193       -5.4111180420       -5.2578383966
 O        -9.5504514268       -4.4386229264       -5.8164252199
 C        -9.7762441989       -6.0382496219       -4.0042642654
 C        -8.7280878775       -6.4720557728       -2.8409588868
 O        -7.5814918115       -6.0594154964       -2.8732762655
 C        -9.2041326412       -7.4176478910       -1.7763485095
 C        -8.1423548762       -7.7844309843       -0.7454765702
 C        -7.7782629096       -9.3316834483       -0.8256896704
 O        -8.5161729935      -10.0831755960       -1.3102128096
 C        -6.3191489089       -9.6619853981       -0.3318329458
 C        -5.2277007943       -8.6325409532       -0.9552214213
 O        -4.5529177577       -7.9610245370       -0.2212458459
 C        -5.0478656698       -8.5288926877       -2.4552823754
 C        -3.7061703769       -7.9613109234       -2.9615827852
 C        -3.8592894975       -6.4857244320       -3.4131073965
 O        -4.9693092847       -6.0125112209       -3.4868516733
 C        -2.5625668385       -5.4410201359       -3.1654524475
 C        -2.8474776391       -4.1399981179       -3.8238300174
 O        -3.9368603900       -3.6740057142       -3.7823132166
 C        -1.7705164402       -3.4422378214       -4.7222309270
 C        -1.8837911552       -1.9147460495       -4.6123577814
 C        -1.2571693292       -1.3514572861       -3.3087698974
 O        -0.4183438888       -1.8837462943       -2.6305495772
 C        -1.7568316459        0.1570712035       -2.7508075017
 C        -3.2909149966        0.0553545100       -2.6437231555
 O        -4.0686036563        0.5015848998       -3.4615463774
 C        -3.7563320577       -0.7156253098       -1.4455923569
 C        -5.2000327533       -0.6996541375       -1.0454778813
 C        -6.0893351373       -1.9188826222       -1.2138793536
 O        -5.6342222526       -3.0086020726       -1.5232571515
 C        -7.6107734784       -1.7864785249       -0.8218788240
 C        -8.4781060330       -2.0599997390       -2.1152053945
 O        -8.1833377829       -2.8478377755       -2.9237495006
 C        -9.8149330699       -1.2926650254       -2.3114089205
 C       -10.4075892022       -1.3213740477       -3.7071651684
 C       -10.9704979397        0.0603573547       -4.1599029737
 O       -10.5258031452        1.0147790478       -3.6279609056
 C       -12.2268509380        0.2258352982       -5.1136566051
 C       -11.8690521427       -0.2063138910       -6.6419824432
 O       -10.7211617537       -0.3909701866       -6.9006472664
 C       -13.0416872289       -0.3527313507       -7.6512046251
 C       -13.3498405600       -0.5615464930       -4.4692858102
 C       -12.6481792551        1.7429983205       -5.1463072918
 C        -7.8680070570       -2.8912612245        0.2698394749
 C        -7.8948182583       -0.4868907816       -0.1688800176
 C        -0.9879388642        0.4435768292       -1.3630558037
 C        -1.3897188335        1.3036577117       -3.8323747254
 C        -2.2633469408       -5.2059729465       -1.6783466642
 C        -1.2250843042       -6.2042993097       -3.7007184013
 C        -6.3712842028       -9.6762476609        1.2914610101
 C        -5.9588362159      -11.1537847119       -0.7342121442
 C       -10.7214988812       -5.0272857424       -3.3713989807
 C       -10.5114587389       -7.3421950195       -4.4990926241
 C        -7.0798543326       -1.0320910328       -6.8842436070
 C        -8.0915945052       -2.4774124825       -8.7407577655
 C        -1.4109475077       -2.0587404185      -12.4462688405
 C        -1.5419472893        0.4019348613      -11.9123951237
 C        -3.4108975322        3.1921122432      -18.3646535243
 C        -4.7734575530        1.2172720738      -18.6262147072
 C         2.6635894607       -1.7587123672      -19.1820795044
 C         3.3310316519        0.1110336699      -17.5754902184
 C         8.3301466184        2.3068559553      -22.4014919192
 C         8.1268437835        4.2727673698      -20.7583877161
 C         1.7813526957        4.4629057837      -25.3682924564
 C         4.1066414061        5.2332853221      -26.0389110674
 H         1.0440214356        7.2807293807      -26.3618824191
 H         2.7365327746        7.3477368767      -26.8330455807
 H         2.0025051336        8.4849133527      -25.7327019880
 H         4.4128986658        6.5956320648      -22.6313656378
 H         5.3350837638        5.8268897553      -24.0482474645
 H         5.1760504502        4.8638070449      -21.0971648537
 H         6.4781945414        5.6517400875      -21.7482680850
 H         7.7225835457        0.6543049943      -19.9393183184
 H         6.8568904131        0.3677418729      -21.4099198751
 H         5.5815057979        0.4409239197      -18.5468169011
 H         5.7484411076       -1.0829840199      -19.5743469526
 H         0.4972860554       -0.1565021964      -17.8191849078
 H        -0.1622167404       -0.5431139662      -19.4063125759
 H        -0.6559952363        2.0267427892      -19.4104610039
 H        -0.5954824181        1.9720370699      -17.7217919455
 H        -4.1080960721       -0.4605180236      -16.2226366706
 H        -5.2090725047        0.8195863211      -15.7735954772
 H        -4.6917237390        0.3272585161      -13.5431721635
 H        -3.4831725472        1.4947373591      -13.8631921095
 H        -3.0182677132       -2.2157740027       -9.8668600371
 H        -4.1003104983       -2.9653918818      -11.0610075795
 H        -5.8791597814       -1.0341503325      -10.1448859764
 H        -4.6779205055       -0.7413515521       -8.8581787447
 H        -6.1895457443       -5.3886576063       -7.4647326310
 H        -7.9609192598       -5.0243901093       -7.8905975652
 H        -6.9691029619       -5.7555588487       -4.9911549554
 H        -7.7571996898       -6.9992459391       -6.0377672009
 H        -9.5633408977       -8.3359237797       -2.3428241996
 H       -10.0264291218       -6.8991435103       -1.2380700042
 H        -8.5192696070       -7.4972064641        0.2590412029
 H        -7.2678719437       -7.1455963650       -0.8695818572
 H        -5.8064743237       -7.8017683656       -2.7702317181
 H        -5.3161350933       -9.3275599748       -3.1083707617
 H        -3.3922354429       -8.5546560784       -3.7717581848
 H        -2.9240264944       -8.0025473397       -2.1893685963
 H        -2.0486833712       -3.7722388554       -5.7248167518
 H        -0.7308434572       -3.9217949537       -4.5319374994
 H        -2.9248083349       -1.7719975558       -4.8182606137
 H        -1.2291229756       -1.5554680849       -5.4155933338
 H        -3.0381670917       -0.3679633414       -0.6781970311
 H        -3.6608521444       -1.7773863114       -1.7257460276
 H        -5.7396557697        0.1796444079       -1.4518235037
 H        -5.1874331037       -0.3840804314       -0.0019410984
 H        -9.6935068197       -0.2654867259       -2.0457817954
 H       -10.4075949813       -1.8172889816       -1.6458704961
 H       -11.1614226618       -2.1018651281       -3.8261409605
 H        -9.6934275486       -1.3536558709       -4.4396997143
 H       -13.0410249572        0.6646912044       -8.1526252580
 H       -13.9350865012       -0.3659934917       -7.1403088100
 H       -12.7712658884       -1.1614905604       -8.3966916398
 H       -13.0989187749       -1.6118101207       -4.3519626458
 H       -14.3062662392       -0.4985285547       -5.0485557517
 H       -13.6637613845       -0.0541352947       -3.5345722544
 H       -11.9997566786        2.3627724785       -5.7164231126
 H       -12.6861700064        1.9875350494       -4.1283325545
 H       -13.6572097552        1.7545381819       -5.5146230225
 H        -8.9237524329       -3.2503421725        0.2789847820
 H        -7.4087401039       -2.5827899064        1.2128405278
 H        -7.2098436722       -3.7401967682        0.0978707377
 H        -8.9071650558       -0.4444119007        0.1267134475
 H        -7.8706234459        0.3111463293       -0.9584000735
 H        -7.2937557172       -0.3298049251        0.6742261077
 H        -1.2599792737        1.2580743353       -0.7504372925
 H         0.0467709315        0.5388111805       -1.6087598905
 H        -0.9440072261       -0.4615254781       -0.7296823409
 H        -1.8256440736        2.1693419323       -3.3276027017
 H        -1.9164600698        1.0920466731       -4.7977939690
 H        -0.3191398325        1.3938583778       -3.9557402304
 H        -2.3178914199       -6.1525698408       -1.1977495596
 H        -2.9622049347       -4.4722959293       -1.1402550615
 H        -1.3321979608       -4.6210829975       -1.4312492657
 H        -0.8502889556       -6.9163337704       -2.9371823521
 H        -0.3966427125       -5.5404920670       -3.8193312370
 H        -1.3348230902       -6.7785312289       -4.6661445425
 H        -6.3567488065       -8.7159331538        1.7140792441
 H        -5.4714256298      -10.0817407972        1.6732332321
 H        -7.1273714085      -10.4157376645        1.5394281624
 H        -6.2256245735      -11.2814083193       -1.7632355947
 H        -6.5041099507      -11.8250947972       -0.0379441103
 H        -4.9041904020      -11.2294728457       -0.4468956972
 H       -11.1901382387       -5.3672950382       -2.4547583483
 H       -11.4355069219       -4.9219074665       -4.1441914772
 H       -10.2375694890       -4.0571807590       -3.2220271116
 H       -10.9157316954       -7.3641504099       -5.5148892110
 H       -11.4007281517       -7.6210374588       -3.9474651163
 H        -9.8782222462       -8.3194458932       -4.4034187450
 H        -6.7992784235       -0.1026982487       -7.4991936523
 H        -6.4072765196       -0.9967280756       -5.9526388843
 H        -8.1359126216       -0.7847331470       -6.6722338722
 H        -7.8418611036       -3.2670126199       -9.3889772668
 H        -8.2961284468       -1.6380020225       -9.3992305479
 H        -9.0763500062       -2.6630705751       -8.4246576058
 H        -0.5749653088       -2.0930722664      -11.8412089223
 H        -1.0203894373       -2.2114324855      -13.4578585415
 H        -2.0055068295       -2.9890285509      -12.2440634249
 H        -2.0935106978        1.2381014521      -11.9063531759
 H        -0.6520145801        0.4657396976      -12.5452287059
 H        -1.0567709745        0.4601663945      -10.8945949528
 H        -2.6128087374        3.6548076307      -17.7953939020
 H        -4.4046757146        3.7029703894      -18.1825308018
 H        -3.1987003272        3.3046256292      -19.4617494529
 H        -4.7968117981        0.1646797143      -18.6744046167
 H        -5.1291746494        1.5389975467      -19.6101213123
 H        -5.6967995569        1.3834077306      -18.0523039934
 H         3.5051341343       -2.4650646435      -19.3897563698
 H         2.0204349256       -1.8640015484      -20.0657064132
 H         2.1040812572       -2.1484038399      -18.3160155361
 H         4.2308944656       -0.3287146472      -17.2474326789
 H         2.4995110166       -0.1811597382      -16.8763529582
 H         3.4863817725        1.1873532521      -17.5163065414
 H         7.9450014225        1.3944496209      -22.7132922267
 H         9.0591349664        2.0413242459      -21.7231809652
 H         8.6789484223        2.8747358296      -23.2654099107
 H         8.7325545838        4.8696549596      -21.4256418649
 H         8.9114610822        4.0680577592      -20.0871019389
 H         7.4856010437        4.8300773549      -20.1578759201
 H         1.5827284855        4.9038735145      -26.3749528786
 H         0.8729455559        4.5764933097      -24.7210814505
 H         2.1003567420        3.4545032212      -25.2973298998
 H         4.4541755117        6.2814138517      -26.3531950351
 H         3.8406477300        4.7199553463      -26.9034787845
 H         5.0373022509        4.7375200747      -25.6729554603
 Na       -6.3772667241       -4.1334053989       -3.3191693823
 Na        3.3210544134        2.6682857019      -21.0911559469
