232

 C         2.0852058941        7.6101482770      -26.0970726758
 C         2.2961302088        6.8119803733      -24.8516656012
 O         2.0476674966        7.2150422413      -23.6715871114
 C         2.9702305958        5.3063128297      -24.9194955753
 C         3.6153214203        4.8797444782      -23.6164197785
 O         3.0759434525        4.0055488373      -22.9709033553
 C         4.7912829014        5.7403907624      -23.1235056998
 C         5.5894466049        5.0400417586      -22.0305772496
 C         6.2307386660        3.7160064251      -22.5056112150
 O         5.9111364629        3.1696903273      -23.5643989921
 C         7.3091560059        3.0913016546      -21.5205898857
 C         6.4385712321        2.2786029147      -20.5668936604
 O         5.5443380484        2.8938326882      -19.9991046544
 C         6.6936614046        0.8002277011      -20.3615484109
 C         5.7146796296       -0.0746983092      -19.4719800730
 C         4.2455496349       -0.0069877286      -20.0149790347
 O         3.9102046478        0.1918407358      -21.1951518004
 C         2.9272110825       -0.2493837374      -19.0596043646
 C         1.6883084672        0.6334842363      -19.2972156866
 O         1.6924452360        1.7244624006      -19.8278943042
 C         0.2686673462        0.2725904726      -18.6953629542
 C        -0.7543314790        1.4842202013      -18.6806367889
 C        -2.2618863547        1.0318751424      -18.9147289637
 O        -2.5902540079        0.1873648711      -19.6905700610
 C        -3.4793868968        1.6385464291      -18.1245627490
 C        -3.2711867224        1.5112680949      -16.5429980112
 O        -2.3715691127        2.1263165038      -15.9976111623
 C        -4.2180676230        0.5297323349      -15.6523881531
 C        -3.8807167580        0.5165239401      -14.1731730720
 C        -2.7493999553       -0.4475778253      -13.8619073200
 O        -2.1501646298       -1.0162081105      -14.7677290423
 C        -2.2855394339       -0.7242319508      -12.3663783962
 C        -3.4912870075       -0.7623492424      -11.3570551915
 O        -4.1915501047        0.2629917604      -11.2742436721
 C        -3.8978199081       -1.9881115159      -10.3759729129
 C        -5.0217200177       -1.4823087949       -9.4108030034
 C        -5.5309356089       -2.5764961085       -8.3698223123
 O        -4.8694290816       -3.5373572914       -8.1485438967
 C        -6.9834387207       -2.4129839882       -7.7452582561
 C        -7.0255911306       -3.5358798220       -6.6076045645
 O        -6.7181222870       -3.2211330352       -5.4825207455
 C        -7.2661676802       -4.9410942983       -6.9705076378
 C        -7.7007335153       -5.9552783236       -5.9044420810
 C        -8.9827659147       -5.4437089254       -5.2024940540
 O        -9.5724622816       -4.4575677440       -5.7087676488
 C        -9.6992739135       -6.1380550467       -3.9901270203
 C        -8.6730870537       -6.5173305467       -2.8171625060
 O        -7.5597213853       -6.1360032008       -2.9023983208
 C        -9.1725651110       -7.4952724883       -1.7447342409
 C        -8.0919120971       -7.7693132624       -0.6529296985
 C        -7.6823979128       -9.2378872590       -0.8094406333
 O        -8.5002531100      -10.1031834783       -1.2312792621
 C        -6.2694039102       -9.6436754665       -0.4518331786
 C        -5.1919701939       -8.7019351478       -0.9829216228
 O        -4.4978296599       -8.0153363289       -0.2729780335
 C        -5.1252131853       -8.4288045204       -2.6061027497
 C        -3.7562576255       -7.9832967001       -3.1182141660
 C        -3.7760096893       -6.4810707054       -3.1716784830
 O        -4.8141756809       -5.9633919913       -3.5529882210
 C        -2.5499817822       -5.5749823800       -3.1719098706
 C        -2.8971280296       -4.1403855408       -3.9497578108
 O        -3.9422340394       -3.5720639433       -3.7428985401
 C        -1.8012007554       -3.3351626927       -4.7600672062
 C        -1.9103966454       -1.7485248127       -4.5812966396
 C        -1.2128445527       -1.2536358914       -3.3340984234
 O        -0.4214141463       -1.9035780692       -2.7080970825
 C        -1.7343155981        0.1288319719       -2.7274812099
 C        -3.2752475282        0.0954885778       -2.6354957401
 O        -4.0551924551        0.6159056540       -3.3996761702
 C        -3.7548938372       -0.7884360265       -1.3978549925
 C        -5.2745156207       -0.5501906160       -1.2209417821
 C        -6.0771139298       -1.8281856431       -1.1962199481
 O        -5.4722116345       -2.8900830584       -1.5288189084
 C        -7.5559423995       -1.7083403599       -0.8025386321
 C        -8.5035999915       -2.0001708988       -2.1055388240
 O        -8.2226371578       -2.9472188952       -2.8862834269
 C        -9.8261186906       -1.2584959536       -2.3741766367
 C       -10.3149577825       -1.3645379931       -3.8244842694
 C       -10.9812405331        0.0583187200       -4.1599206531
 O       -10.5211047542        1.0666320354       -3.6828825285
 C       -12.2628289912        0.1562727377       -4.9971712495
 C       -11.8189473550       -0.2410860972       -6.5204209594
 O       -10.6326295319       -0.2432342563       -6.7528813344
 C       -12.9909894180       -0.3178376388       -7.4095341679
 C       -13.3829569592       -0.7299460692       -4.4786709026
 C       -12.5442255000        1.7048343451       -5.1490820538
 C        -7.8340039717       -2.9522957800        0.1812038715
 C        -7.9538851583       -0.3505454458       -0.1164820595
 C        -1.0668029010        0.4225416762       -1.4339668633
 C        -1.4575247055        1.2128981426       -3.8327317361
 C        -2.3577328837       -5.2740042231       -1.7067055866
 C        -1.2905775465       -6.3908706006       -3.7223619730
 C        -6.1687572980       -9.5329458439        1.1049816413
 C        -6.0454457736      -11.2167650444       -0.8581995512
 C       -10.7718960581       -5.1359004713       -3.3643800286
 C       -10.4314765689       -7.3820200510       -4.4355305071
 C        -7.0602925071       -1.0124882957       -7.0136192013
 C        -8.1378155452       -2.4231364017       -8.8070353019
 C        -1.5308615521       -2.1118849734      -12.2161753613
 C        -1.4465422264        0.5604469212      -12.0079410462
 C        -3.5190707192        3.1670549049      -18.4653799434
 C        -4.8684806838        0.9241609867      -18.7172143191
 C         2.6339180290       -1.8090333548      -19.2467872981
 C         3.3501588053       -0.0022012356      -17.5819523437
 C         8.4136252778        2.2722483907      -22.2141924212
 C         8.0151595103        4.1932631652      -20.7062663178
 C         1.7595745613        4.4219475454      -25.3006757933
 C         4.0905454425        5.3378238802      -26.1315911083
 H         0.9984771401        7.5498817667      -26.3263010734
 H         2.6376213289        7.1975096004      -26.8933400226
 H         2.2523014977        8.6583542530      -26.0153430545
 H         4.2417075244        6.6582789164      -22.6506902612
 H         5.3903752735        6.0071009570      -24.0022482014
 H         4.9685585749        4.9061312334      -21.1995986137
 H         6.3704582386        5.6505378511      -21.6828928641
 H         7.6882906486        0.7313269649      -19.9560630377
 H         6.8611160688        0.2593681447      -21.4192900786
 H         5.6992933487        0.3160697380      -18.3726388919
 H         5.9093029924       -1.0851003303      -19.5397518020
 H         0.4534032824       -0.1338507129      -17.6850338735
 H        -0.1686872871       -0.5793838168      -19.3699951263
 H        -0.3846463614        2.2269001092      -19.3971405537
 H        -0.7011268556        2.0290396491      -17.6919570592
 H        -4.2725085884       -0.5386852034      -16.0057174489
 H        -5.2621482795        0.8675237375      -15.6915217344
 H        -4.7602331029        0.1639318305      -13.6290776644
 H        -3.7157693523        1.4839293915      -13.8151623318
 H        -3.0349931213       -2.3746883524       -9.7928185697
 H        -4.2437394161       -2.9099742674      -10.9948524174
 H        -5.8540470036       -1.1816405275      -10.1529780943
 H        -4.6969786276       -0.5484596272       -8.9379203396
 H        -6.2167722488       -5.3240567398       -7.2768987222
 H        -7.9178670977       -5.0916920141       -7.8804569429
 H        -6.9550660357       -6.1967917661       -5.1988380362
 H        -7.9725041771       -6.8180279603       -6.4613781688
 H        -9.4250046372       -8.3993403515       -2.2925149235
 H       -10.0711015227       -7.0454401034       -1.2519645791
 H        -8.4763104817       -7.6044443880        0.3294332581
 H        -7.2769506384       -7.1295851992       -0.7478369709
 H        -5.9533329175       -7.7789577250       -2.9589435205
 H        -5.2686121992       -9.3268768366       -3.2026930205
 H        -3.5810368755       -8.2240556529       -4.1954086190
 H        -3.0581925259       -8.4291542898       -2.5036112163
 H        -1.8255450908       -3.6599339403       -5.7955305604
 H        -0.8144862223       -3.7771394323       -4.3115439041
 H        -3.0432907843       -1.5257389808       -4.7492682176
 H        -1.3087602646       -1.4040898025       -5.3935473288
 H        -3.1286790637       -0.4676115185       -0.5621648343
 H        -3.7527328773       -1.8526238093       -1.6128375533
 H        -5.6917161486        0.0104206162       -2.0465594029
 H        -5.3921018433        0.2017550829       -0.4118197062
 H        -9.6215589322       -0.2333946525       -2.2168579496
 H       -10.5457330008       -1.6863040498       -1.6151978030
 H       -11.0598805305       -2.1087239979       -3.9163323629
 H        -9.5901405877       -1.3777450907       -4.6190215341
 H       -13.1359584142        0.5913377412       -7.9849181728
 H       -13.9519081872       -0.4257094675       -6.7540001305
 H       -12.7372480638       -1.1717955995       -8.0035169181
 H       -13.1066351935       -1.7182313063       -4.4530719058
 H       -14.3059408757       -0.6132288285       -5.0924126422
 H       -13.7684337624       -0.3205304376       -3.5368662586
 H       -11.7790683821        2.0655697316       -5.7528544362
 H       -12.5472572306        2.1145715274       -4.1427657571
 H       -13.5475550029        1.8354597260       -5.5806117169
 H        -8.8781714193       -3.1928564643       -0.0716666558
 H        -7.6645212349       -2.6859229254        1.2203000759
 H        -7.1273450167       -3.8564876230        0.1716803829
 H        -8.9797376326       -0.3585954183        0.2846616835
 H        -7.9635721472        0.4137181010       -0.8222974688
 H        -7.3284580111       -0.2111679902        0.7118572240
 H        -1.4804029045        1.3544937396       -0.9480055660
 H        -0.0457161486        0.5324436744       -1.5427599175
 H        -1.1655745701       -0.3404074358       -0.7226455611
 H        -1.5928637775        2.1524126840       -3.4167160171
 H        -2.0923335006        1.0141368815       -4.6597932272
 H        -0.4504146155        0.9679767979       -4.1523060326
 H        -2.0948249268       -6.1822245885       -1.0873065939
 H        -3.1967874027       -4.7988500680       -1.2319379219
 H        -1.6840802089       -4.4790340600       -1.5787466403
 H        -1.0099778989       -7.2265618704       -3.0789931797
 H        -0.4322500665       -5.7588182980       -3.7273531381
 H        -1.4371071596       -6.7604838064       -4.7523152429
 H        -6.2665202159       -8.5126928216        1.4844071794
 H        -5.1718306018       -9.7950281771        1.4248965699
 H        -6.8360214458      -10.2843077385        1.4902312797
 H        -6.5404299080      -11.3134958948       -1.8402992209
 H        -6.4768989466      -11.8520125726       -0.0727869944
 H        -4.9584950937      -11.3860484866       -0.8380533413
 H       -10.9260184204       -5.3536878958       -2.3114840059
 H       -11.6993150963       -5.2836351208       -3.9434090647
 H       -10.4391074083       -4.0906673928       -3.4474698578
 H       -10.8345493845       -7.3301909619       -5.4154147621
 H       -11.3277559506       -7.5672200341       -3.8433459927
 H        -9.9283742536       -8.3125549812       -4.4063570718
 H        -6.5599130075       -0.1522432851       -7.5983878055
 H        -6.4235633510       -1.0799373585       -6.1205972052
 H        -8.0556771916       -0.6027077180       -6.8218578995
 H        -8.2053794043       -3.2522996206       -9.4992702510
 H        -8.1522881627       -1.5275959887       -9.3864260568
 H        -9.1357377155       -2.3485342026       -8.3645150794
 H        -0.5418573005       -2.1391173968      -11.6275379228
 H        -1.1959053819       -2.3382391361      -13.1910324388
 H        -2.0526524903       -2.8859180090      -11.8871466640
 H        -2.1440838023        1.3855828266      -11.7363121206
 H        -0.6949993166        0.8784911993      -12.6213617404
 H        -0.8643632499        0.4581972118      -11.0664882475
 H        -2.6292633704        3.6871157114      -17.9310982255
 H        -4.4039265637        3.5851730673      -18.1956202296
 H        -3.4040575641        3.3133536605      -19.5228399330
 H        -4.7337709384       -0.1375407664      -18.8441086354
 H        -5.1814541945        1.3101002254      -19.6558186069
 H        -5.7934529772        0.9428686054      -18.1923972745
 H         3.5418556513       -2.4177667818      -18.8803351071
 H         2.4937051625       -2.1398601961      -20.3204078577
 H         1.8132274660       -2.1495800254      -18.6962356521
 H         4.2144211889       -0.6442192815      -17.3753946520
 H         2.6012598345       -0.1364562147      -16.8008132295
 H         3.7580169521        1.0037126441      -17.5372776584
 H         8.1015245479        1.5495159868      -22.9545243510
 H         8.9093559762        1.7188054854      -21.4517414882
 H         9.0509355419        3.0320706254      -22.7468417413
 H         8.7673486398        4.8074418424      -21.1364224987
 H         8.6449819800        3.7247080183      -19.9468034671
 H         7.3703392729        4.7158721256      -19.9417461482
 H         1.4936202034        4.7424056343      -26.3308489352
 H         1.0112462878        4.7186596749      -24.6679713782
 H         1.9646230699        3.3620230180      -25.1204192254
 H         4.4753043633        6.3314554881      -26.2512504430
 H         3.7150829036        5.0725165262      -27.1213878562
 H         4.9869743151        4.6992091572      -25.9431563439
 Na       -6.3510876685       -4.1638941470       -3.4020768710
 Na        3.3770297767        2.7438097673      -21.0111063890
