232

 C         1.8879379401        7.4021394469      -26.2907718412
 C         2.2795824129        6.9351047770      -24.8636038527
 O         2.1978824183        7.4545715503      -23.8172513122
 C         2.8586854533        5.4748607888      -24.9687385484
 C         3.5281020681        5.1483067417      -23.5826795503
 O         2.9841478270        4.3999202558      -22.7784478454
 C         4.8989044476        5.7369218103      -23.2563015897
 C         5.5210100036        5.1419806629      -21.9974901536
 C         6.0713040428        3.7764678939      -22.3754597868
 O         5.7360830669        3.2168274712      -23.3604580072
 C         7.0059290406        3.0418512341      -21.2897135516
 C         6.1029216762        2.0989049440      -20.4753515990
 O         5.1393541599        2.6175597421      -19.8250688229
 C         6.3069669544        0.6320252223      -20.3785494566
 C         5.2981186069       -0.2609957536      -19.5464036764
 C         3.8744431590        0.0932396577      -19.9142349145
 O         3.7010590982        0.5884581698      -20.9913508360
 C         2.7387168033       -0.3071818132      -18.9798372266
 C         1.6225295109        0.8245357707      -19.0824222186
 O         1.7828070306        1.9211139060      -19.6023866764
 C         0.2542346532        0.3799359656      -18.6629101837
 C        -0.7362569042        1.4681317701      -18.4293653791
 C        -2.1573906828        0.8237887172      -18.7809003181
 O        -2.1749315101       -0.2890229356      -19.3023847032
 C        -3.4578675197        1.2848854820      -18.0746243550
 C        -3.1756930257        1.3045850515      -16.4877188531
 O        -2.3072925535        1.9820294599      -15.9802443449
 C        -4.1246473406        0.5920430869      -15.5077952715
 C        -3.6994313644        0.7183741585      -14.0737058336
 C        -2.8553916402       -0.4407574505      -13.6169884299
 O        -2.6312873520       -1.3454377375      -14.3541431273
 C        -2.2635097956       -0.5384083942      -12.2166554001
 C        -3.5166775523       -0.4099419450      -11.2450824001
 O        -4.1167215468        0.6199086380      -11.2133657855
 C        -3.7441122045       -1.5939755580      -10.3730639514
 C        -4.8877828578       -1.2990775733       -9.4058353114
 C        -5.5245026539       -2.6100993986       -8.7524616097
 O        -5.1095188784       -3.6781012153       -9.1922747913
 C        -6.8967368598       -2.5644668102       -7.8301315501
 C        -6.8952243456       -3.5578828154       -6.7093945637
 O        -6.4908276685       -3.3120414041       -5.5842481733
 C        -7.4722395827       -4.9752664661       -6.9714754618
 C        -7.7777055594       -5.7235813506       -5.6321171256
 C        -9.1081357720       -5.2947119313       -4.9344211746
 O        -9.6209378223       -4.2752738969       -5.2001185716
 C        -9.7073691160       -6.3260380551       -3.8785938227
 C        -8.6689137066       -6.4794893750       -2.6709573441
 O        -7.4792491120       -6.0813637241       -2.7571135281
 C        -9.0708944457       -7.3413290247       -1.4476299309
 C        -7.7694745035       -7.8055047592       -0.6538184646
 C        -7.3871724913       -9.2888085369       -1.0105813588
 O        -8.1785021747      -10.0654414560       -1.4200630812
 C        -5.9039196680       -9.6862099833       -0.7346319944
 C        -4.8399584111       -8.7541669528       -1.4874621329
 O        -4.1507739600       -8.0014296519       -0.8033259791
 C        -4.7450179624       -8.8352402821       -2.9831388082
 C        -3.5903515605       -8.0436593901       -3.6899644260
 C        -3.8869828487       -6.4766937228       -3.7545963143
 O        -4.9613018744       -6.1948877583       -4.1904649395
 C        -2.6896066573       -5.5488752472       -3.3789744451
 C        -2.8555406921       -4.1177117823       -4.0094490321
 O        -3.8899890019       -3.5438670503       -3.6799728832
 C        -1.6742479895       -3.3873081271       -4.6742839552
 C        -1.7181941637       -1.8265476124       -4.6669821595
 C        -1.2822572180       -1.2575365057       -3.2883416795
 O        -0.6964025587       -1.9664071559       -2.4913485302
 C        -1.5791868310        0.1942220911       -2.9974524395
 C        -3.2140252691        0.3190491582       -2.7456447980
 O        -3.8880036703        1.0586806179       -3.4144813318
 C        -3.8653756707       -0.4860482181       -1.5957609005
 C        -5.4746693951       -0.3084432333       -1.4333781275
 C        -6.0896971355       -1.6571595441       -1.1216736676
 O        -5.4873859673       -2.6392747343       -1.2626389471
 C        -7.5816072012       -1.7914139756       -0.6889547748
 C        -8.4651550538       -2.0226552438       -1.9785934745
 O        -8.3893614094       -2.9150957909       -2.7611194978
 C        -9.5196727264       -0.8771334813       -2.1948815488
 C        -9.9735272127       -0.9256470457       -3.6555720235
 C       -10.8507723394        0.3242828699       -3.9917641410
 O       -10.5436251950        1.4124375804       -3.5939999705
 C       -12.2015291106        0.1553336122       -4.8940882604
 C       -11.7362379464       -0.2046740061       -6.3166903372
 O       -10.5348545705       -0.4105446097       -6.5678641711
 C       -12.8469847611       -0.4703179163       -7.4242641696
 C       -13.3537985304       -0.9547083981       -4.5059649548
 C       -12.9090787041        1.6113892102       -5.0167427744
 C        -7.7021147731       -3.1180299835        0.0937658742
 C        -8.0450708512       -0.6182143267        0.2409362261
 C        -0.9235007089        0.6683352116       -1.5929757543
 C        -1.1408794339        1.0838953332       -4.1728235396
 C        -2.6448730899       -5.6554844733       -1.8276222103
 C        -1.4064334058       -6.1375755069       -4.0543832810
 C        -5.6775576865       -9.3307025017        0.8452092131
 C        -5.8034175041      -11.1971293893       -1.1820157604
 C       -11.0656234168       -5.7804574108       -3.3310614701
 C       -10.0514447573       -7.7264977815       -4.5551237360
 C        -6.9478753251       -1.1662725514       -7.2135683983
 C        -8.0279318061       -2.6223008137       -8.9082309688
 C        -1.3204703401       -1.7149619458      -12.0382121317
 C        -1.3679871392        0.6818372150      -11.8426601929
 C        -3.5343520278        2.7202943684      -18.5784898701
 C        -4.5381437366        0.3476663533      -18.4308497690
 C         2.1755686924       -1.6315559164      -19.4288765870
 C         3.0266932100       -0.3672832079      -17.5010990584
 C         8.0794762280        2.2200483891      -21.9861975960
 C         7.6596430844        3.9546787415      -20.2705710025
 C         1.4780405992        4.5177170810      -24.9874839269
 C         3.8656143086        5.2715573236      -26.0507789813
 H         1.6494676134        8.3937569114      -26.1268319299
 H         1.0248026982        6.8330745357      -26.6152581588
 H         2.5506172132        7.3468575369      -27.1438106063
 H         4.7454571256        6.8472697677      -23.1349460151
 H         5.5381815714        5.5304089123      -24.1555333977
 H         4.8523390681        5.1117582920      -21.2097466240
 H         6.3522462011        5.7495465997      -21.7304428196
 H         7.3892117089        0.3545160387      -20.0894284687
 H         6.2263861513        0.2110243483      -21.3239034155
 H         5.4575550844       -0.3593363843      -18.4781421087
 H         5.4605711041       -1.3498080184      -19.9560743428
 H         0.3304833753       -0.2525296112      -17.6892949800
 H        -0.0874763520       -0.2919065792      -19.4965815084
 H        -0.5107718393        2.3679774191      -19.0675494896
 H        -0.8816243156        1.7048545137      -17.3961124122
 H        -4.1644484002       -0.4398055592      -15.7861475419
 H        -5.2139178097        0.9453895856      -15.6355679622
 H        -4.5072442056        0.9735889133      -13.4422506561
 H        -3.0440113569        1.5755384501      -14.1250332221
 H        -2.7487580425       -1.8807414168       -9.8254024437
 H        -3.9175113644       -2.4676365962      -10.9669232343
 H        -5.6835601393       -0.7446782935       -9.8724768120
 H        -4.5838123616       -0.5036702353       -8.5867727278
 H        -6.7818903187       -5.6026754264       -7.6165203058
 H        -8.3285253829       -4.8142982531       -7.6916317176
 H        -6.9291463023       -5.5612100780       -5.0265320993
 H        -7.7817002485       -6.7834298882       -5.6948988542
 H        -9.6903304172       -8.2158971261       -1.7020847928
 H        -9.6695302378       -6.6775790635       -0.7630070822
 H        -7.9570305095       -7.7720115740        0.3665999018
 H        -6.9687906958       -7.1065974277       -0.8017057924
 H        -5.6217038555       -8.3720179922       -3.4638847618
 H        -4.7051783295       -9.8761295349       -3.3515166035
 H        -3.6987275952       -8.4515289018       -4.6597188755
 H        -2.6641407011       -8.2132869711       -3.1628028254
 H        -1.7470836948       -3.8510987432       -5.7359508471
 H        -0.7968774060       -3.7461318146       -4.2691729350
 H        -2.7480931951       -1.5429865990       -4.9724004709
 H        -1.0240697240       -1.5150159537       -5.5312575755
 H        -3.3278094448       -0.3243360931       -0.6780095417
 H        -3.6775800918       -1.4817324012       -2.0408937498
 H        -5.7914575756        0.1085215493       -2.3925056057
 H        -5.7832303125        0.4349793343       -0.6814849728
 H        -8.9417036804       -0.0347474352       -1.8820303764
 H       -10.2493386779       -0.9473872350       -1.3718587858
 H       -10.5020974446       -1.8319536461       -3.8525050966
 H        -9.0470411484       -0.9887959650       -4.2677141252
 H       -12.7075833303        0.4038577461       -8.1068791772
 H       -13.8390561572       -0.6479801994       -7.1976105188
 H       -12.4291545463       -1.4394291408       -7.8790297285
 H       -12.9281801683       -1.9843059878       -4.8527533183
 H       -14.2193976636       -0.8063205280       -5.0813330767
 H       -13.5004150476       -1.0178978985       -3.4438178192
 H       -12.1250668020        2.3557883375       -5.2591368252
 H       -13.5177606315        1.8727886458       -4.1858433210
 H       -13.5480624562        1.4248804598       -5.8047034367
 H        -8.7052498277       -3.1519065348        0.5797462102
 H        -6.9574793053       -3.3610226734        0.9479112088
 H        -7.5977052969       -3.8835532088       -0.7008892669
 H        -8.9782078767       -0.6644097823        0.6783764675
 H        -7.7910726471        0.3148620249       -0.2335842432
 H        -7.3062143252       -0.6644867969        1.0396690540
 H        -1.1253202180        1.6769979301       -1.6504901496
 H         0.1897307246        0.5731566768       -1.4537980592
 H        -1.4056623743        0.3477747069       -0.6986913514
 H        -1.6193187876        2.0512964334       -3.9649655969
 H        -1.4550595864        0.6190864611       -5.0747303964
 H        -0.0686636925        1.1130378230       -4.1168555707
 H        -2.8701002199       -6.5945957112       -1.4032121882
 H        -3.5218540227       -5.0854920681       -1.4430727390
 H        -1.6883747933       -5.2243710967       -1.4420003142
 H        -1.2710210246       -7.0767780103       -3.5295283318
 H        -0.4986637863       -5.4873668970       -3.8605874804
 H        -1.4746333449       -6.3354614861       -5.1013655040
 H        -5.8680171338       -8.3130758112        1.0741494154
 H        -4.7137989348       -9.6828099301        1.1659226996
 H        -6.4536294679       -9.7697026323        1.4196278107
 H        -5.8339776566      -11.3602497384       -2.2892936534
 H        -6.5820606281      -11.7628881892       -0.6490285795
 H        -4.7763429609      -11.4257655022       -0.8570006879
 H       -11.8582747412       -6.5018081215       -3.5412236921
 H       -11.3179133061       -4.8074410340       -3.7679739673
 H       -10.9267233650       -5.7387297695       -2.2724912516
 H       -10.5872069310       -7.6660239155       -5.4878293311
 H       -10.6109363101       -8.4154390439       -3.9738169110
 H        -9.2055714015       -8.2973248402       -4.8885621969
 H        -6.7838799598       -0.4970424506       -8.0293212629
 H        -6.1059175078       -0.9593740065       -6.4977417105
 H        -8.0030088566       -0.9674966469       -6.8215943425
 H        -8.0520355296       -3.4768774710       -9.5775464630
 H        -7.9361218973       -1.7559759127       -9.5427571418
 H        -9.0044535505       -2.6901073747       -8.4572718079
 H        -0.8859102261       -1.7917501972      -11.1386073776
 H        -0.6534456437       -1.7666209691      -12.8589025485
 H        -1.8628353379       -2.7312968365      -12.0577786648
 H        -1.6906386465        1.6506399232      -12.2094624918
 H        -0.3062159665        0.7280069451      -12.2721035431
 H        -1.2187239135        0.6705901724      -10.8146763891
 H        -2.8308359560        3.1602413324      -18.0262901212
 H        -4.5517291615        3.1662132589      -18.3185370666
 H        -3.3364469301        2.8454425909      -19.6337714977
 H        -4.4426422502       -0.6910474372      -18.1793104591
 H        -4.7683406778        0.3807553626      -19.4793350234
 H        -5.4875054084        0.6273621233      -18.0125528815
 H         2.8821067207       -2.2358800471      -19.9549785918
 H         1.3185795545       -1.4577323413      -20.1023516470
 H         1.7528514285       -2.2957593342      -18.5531987806
 H         3.7607523549       -1.1401960188      -17.2578213551
 H         2.1766283536       -0.7941744148      -17.0159096336
 H         3.2419350323        0.5547614172      -16.9727271581
 H         7.6331276152        1.3563340032      -22.4863842924
 H         8.9738948291        1.9527924297      -21.3482475603
 H         8.4822553621        2.7874787486      -22.7527982720
 H         8.4779742767        4.6482866432      -20.6062605721
 H         8.0695847001        3.2294744811      -19.5154328519
 H         7.1264310429        4.6601605186      -19.6562091344
 H         0.9329959411        4.7117068866      -25.8336022667
 H         1.0002410249        4.8561588850      -24.0480403821
 H         1.7671252897        3.4992370176      -25.0744923532
 H         4.4372227540        6.1274461615      -26.3958284605
 H         3.2085003414        4.9937771087      -26.9307579104
 H         4.5049034440        4.4425079044      -25.8288587922
 Na       -6.3325006921       -4.1262351645       -3.2960946511
 Na        3.2518760451        2.7004312876      -21.4431363427
