232

 C         1.7506030666        7.5360569424      -26.2351322860
 C         2.2908038882        6.9989485855      -24.9289835503
 O         2.2240729339        7.6934950509      -23.9078622905
 C         2.7874769935        5.4428076885      -24.8830300922
 C         3.5609650940        5.1111505676      -23.5848210065
 O         3.0755931916        4.3120762151      -22.7646461123
 C         4.8522167232        5.8792540049      -23.2111742364
 C         5.5529050284        5.1677074499      -22.0163298163
 C         5.9626982049        3.7152991289      -22.2857902749
 O         5.7333300526        3.0987761790      -23.2954538742
 C         6.9454662718        2.9377653737      -21.1964712538
 C         5.9873602188        2.0452466956      -20.3397551304
 O         4.9822453379        2.5698991068      -19.7964777120
 C         6.4310255926        0.6088563191      -20.3352134386
 C         5.4295887683       -0.3192091106      -19.7130345046
 C         3.8970365425        0.1982495824      -19.9370732998
 O         3.6044918187        0.5378782043      -21.0556951005
 C         2.7483143357       -0.2133344130      -18.9728674534
 C         1.5331538170        0.8673713584      -19.1160014186
 O         1.7299921388        1.9699421058      -19.5117896223
 C         0.2648529474        0.3856783235      -18.5365737007
 C        -0.8635860861        1.3765419958      -18.4976039589
 C        -2.1805108501        0.5786162439      -18.6295602414
 O        -2.1690291992       -0.4114421483      -19.2742406869
 C        -3.4539435529        1.3030333152      -18.0178020229
 C        -3.2274927303        1.3057042091      -16.4492633094
 O        -2.2719079453        1.9748884004      -16.0833474178
 C        -4.1952685382        0.7052685653      -15.4513703613
 C        -3.6776091938        0.7213314464      -14.0290379372
 C        -2.8200913247       -0.4518255172      -13.6862912817
 O        -2.7556600842       -1.5069219284      -14.3139678081
 C        -2.1420976787       -0.3890427242      -12.1238998525
 C        -3.3695259507       -0.4030602781      -11.1562291790
 O        -4.1586134079        0.5550132824      -11.2055719521
 C        -3.7807346294       -1.6268831859      -10.2890960970
 C        -4.9026602511       -1.3244812683       -9.3659107237
 C        -5.6078116591       -2.5897593544       -8.8514520410
 O        -5.2766975400       -3.6719695680       -9.2102291068
 C        -6.8380943606       -2.4370978768       -7.9318638135
 C        -6.9119025466       -3.5758387111       -6.6905484522
 O        -6.2982569508       -3.3014497993       -5.6824652967
 C        -7.4535725064       -4.9888907238       -6.9027650191
 C        -7.8636613848       -5.7672324645       -5.7092242602
 C        -9.0902518475       -5.3188342514       -4.9267257444
 O        -9.6774648043       -4.2273344917       -5.0841697083
 C        -9.6686663698       -6.3604938920       -3.8087942521
 C        -8.6648894786       -6.6021481859       -2.6774934923
 O        -7.6215828350       -5.9768661003       -2.6995950941
 C        -8.9651558305       -7.4210994382       -1.4229771930
 C        -7.6819749431       -7.7937649746       -0.7579280080
 C        -7.3644905819       -9.2328616717       -1.1169620108
 O        -8.0970328345      -10.0113515280       -1.6468280078
 C        -5.8391492161       -9.6883183553       -0.7114430611
 C        -4.8582583872       -8.6813606646       -1.5699635309
 O        -4.1039362528       -8.0085258316       -0.9330168266
 C        -4.7746967508       -8.8570532130       -3.1281937711
 C        -3.6207126955       -8.0456065817       -3.7726298371
 C        -3.9038901380       -6.5739027012       -3.9252534060
 O        -4.9993576776       -6.1250011831       -4.2513661627
 C        -2.6874419187       -5.6174834967       -3.4789993217
 C        -2.8712793839       -4.1083260564       -3.9376421001
 O        -3.9000716043       -3.5191027605       -3.7530046561
 C        -1.6889054358       -3.4281976253       -4.7250028151
 C        -1.8555465214       -1.8992702691       -4.6075953620
 C        -1.4090307979       -1.3728410162       -3.1775588310
 O        -0.8313555487       -2.0783280231       -2.4077501777
 C        -1.7499442272        0.3183998561       -2.9261034127
 C        -3.2442549244        0.3334791647       -2.7230770149
 O        -3.8684680014        1.0575872111       -3.4447831093
 C        -3.8509770729       -0.5905721271       -1.7145100562
 C        -5.3225796119       -0.3263507515       -1.5411866289
 C        -5.9513843486       -1.6229220582       -1.1501926550
 O        -5.3485799352       -2.7066161025       -1.2614483088
 C        -7.4351453540       -1.7246730338       -0.6712707313
 C        -8.3639066988       -1.7762133563       -1.9110028232
 O        -8.2789114222       -2.8000786995       -2.5852354652
 C        -9.4952740445       -0.7293318666       -2.2204669994
 C       -10.0225683555       -0.8192377380       -3.6488801057
 C       -10.9905368020        0.3303344400       -3.9190897397
 O       -10.6796338680        1.4246878069       -3.6018536704
 C       -12.2190649287        0.0771078318       -4.9428029784
 C       -11.7244535643       -0.3339091172       -6.4163771161
 O       -10.5421292218       -0.3936053146       -6.6085765236
 C       -12.7655164702       -0.3859439740       -7.4592479986
 C       -13.2394230506       -0.8676865441       -4.3900684289
 C       -12.8507901065        1.4629787295       -5.0745938629
 C        -7.5826660403       -3.1968516317        0.0081172804
 C        -7.9066018446       -0.6644265230        0.3041669288
 C        -1.0090498392        0.8051556669       -1.7045734289
 C        -1.2683693516        1.1732321503       -4.0630526671
 C        -2.6034563594       -5.5739113554       -1.9811028266
 C        -1.2660585799       -6.2034634702       -3.9758941714
 C        -5.6012785445       -9.4866785983        0.7595468392
 C        -5.7403297563      -11.1130208410       -1.0457041118
 C       -11.0189819288       -5.8065790919       -3.3125705428
 C        -9.8567464166       -7.8002241336       -4.4148382571
 C        -7.0374932206       -1.0323719602       -7.1679595289
 C        -8.1206003480       -2.7150645566       -8.8547070683
 C        -1.2406616025       -1.6444207241      -11.9698535014
 C        -1.2601893422        0.8360867523      -11.8333248919
 C        -3.7134294835        2.7919976882      -18.5757787888
 C        -4.6637553816        0.4037312059      -18.4278075395
 C         2.2141071213       -1.6120112314      -19.6515120171
 C         3.1901563078       -0.4121516443      -17.4771631379
 C         8.0165498196        2.1742751102      -21.9856224290
 C         7.6307396505        4.0532558932      -20.3118598226
 C         1.5848906684        4.5151029998      -24.9186480614
 C         3.7648072229        5.0784588904      -26.1006336685
 H         1.7932691425        8.6332576765      -26.1941245123
 H         0.7552533109        7.1276295249      -26.4998064442
 H         2.3805414953        7.2394282760      -27.0806668996
 H         4.6129943799        6.8577699971      -22.9322480686
 H         5.4340670771        5.8841557565      -24.1766875969
 H         4.7807392937        5.1536347034      -21.2234894598
 H         6.4157785781        5.7461284126      -21.6765064116
 H         7.3667691143        0.4721809079      -19.8384281530
 H         6.6231680028        0.2724530194      -21.3028973773
 H         5.5498850114       -0.1564692718      -18.6724054507
 H         5.7155745174       -1.4386082248      -19.8309989661
 H         0.5144596219       -0.1018034601      -17.5375766008
 H        -0.0749285002       -0.4397980848      -19.2559468539
 H        -0.8268572916        1.9456004590      -19.4510025602
 H        -1.0219081123        2.0156539898      -17.6126422324
 H        -4.3412280871       -0.3150618601      -15.8023264016
 H        -5.1981216791        1.1366656757      -15.4699568217
 H        -4.5418286002        0.7233374826      -13.3754588304
 H        -3.1270567371        1.6795548001      -13.8917588267
 H        -2.9372277091       -1.9273323188       -9.7455314044
 H        -4.0342486636       -2.4988304128      -10.8701725238
 H        -5.6185738968       -0.6128217928       -9.7609937256
 H        -4.5940957519       -0.7375445399       -8.4911223251
 H        -6.7433469069       -5.5166470158       -7.4806219092
 H        -8.2481615063       -4.8814917529       -7.6053237723
 H        -6.9994810944       -5.7878882222       -4.9843406710
 H        -7.9855499622       -6.8216216505       -5.9058942364
 H        -9.5781454874       -8.3015284287       -1.5914575037
 H        -9.4953521154       -6.7921955836       -0.7624311166
 H        -7.7349494553       -7.7154282442        0.3055468858
 H        -6.8972021193       -7.1351289560       -1.0636387420
 H        -5.7577807949       -8.6010229709       -3.6093213716
 H        -4.5219476393       -9.9140167079       -3.3988069004
 H        -3.5240178465       -8.5090168377       -4.7489832103
 H        -2.7251378003       -8.1176939430       -3.0318262675
 H        -1.7175171983       -3.8134185990       -5.7134862389
 H        -0.7389081396       -3.7571783709       -4.2883787668
 H        -2.8455549330       -1.6971579463       -4.9003881381
 H        -1.1662579894       -1.3831279662       -5.3999042077
 H        -3.3251348068       -0.5380190409       -0.7726410563
 H        -3.7311143764       -1.5650616421       -2.1703014437
 H        -5.7021932258       -0.0150865604       -2.5480035987
 H        -5.5832360262        0.4213605347       -0.8360357434
 H        -9.1200776508        0.2236065066       -1.6827584384
 H       -10.2566483450       -1.0570301382       -1.4929301820
 H       -10.3832141762       -1.9039296656       -3.8579389126
 H        -9.1953592532       -0.6588048655       -4.3791598641
 H       -12.5384630899        0.5323946848       -7.9883549837
 H       -13.7867523663       -0.4218199839       -7.0884904266
 H       -12.6568578974       -1.2854922395       -8.0172797880
 H       -12.8935552363       -1.8743569527       -4.4815177672
 H       -14.1036590519       -0.8066969633       -5.0350026349
 H       -13.4034640713       -0.7041852186       -3.3492642159
 H       -12.0766811740        2.1141225813       -5.4714027970
 H       -13.2540453221        1.8261331065       -4.1334765265
 H       -13.6935770848        1.2664073202       -5.7648732782
 H        -8.6121793025       -3.5585959444        0.2902686482
 H        -6.9937106340       -3.3645460500        0.9480576922
 H        -7.1736625425       -3.7872509766       -0.8115037375
 H        -8.9103497330       -0.8473041463        0.5974661212
 H        -7.7186435229        0.3270411808       -0.1826716938
 H        -7.2863503480       -0.6012061588        1.1576433686
 H        -1.2084900171        1.8719242171       -1.6639661374
 H         0.0696625558        0.7365630240       -1.7193239350
 H        -1.4448766956        0.3351333714       -0.7880594319
 H        -1.5910952442        2.1806695779       -3.8805219190
 H        -1.6127257342        0.7664997584       -5.0015331596
 H        -0.2415942388        1.0973848162       -3.9250625635
 H        -2.4566616545       -6.4782013874       -1.4853307241
 H        -3.5354647582       -5.2522832828       -1.5424040308
 H        -1.7664555609       -4.9279467351       -1.7531757507
 H        -1.1799354438       -7.1858402997       -3.5532557983
 H        -0.4356757961       -5.6165338752       -3.6691224356
 H        -1.2506387428       -6.2985259017       -5.0585568574
 H        -5.7094081011       -8.4776911287        1.0743186284
 H        -4.6971588800       -9.9866109961        1.0374629555
 H        -6.4388997285       -9.9269987533        1.3245243816
 H        -6.0267239228      -11.2696979725       -2.0859947695
 H        -6.4740792256      -11.6249192015       -0.3691775656
 H        -4.6867235035      -11.4246112728       -0.9254912053
 H       -11.7616860051       -6.4258294895       -3.8438611820
 H       -11.1483966275       -4.7706003035       -3.6190009078
 H       -11.0893515615       -5.9359509296       -2.2024577113
 H       -10.0858165665       -7.8976774325       -5.4105760278
 H       -10.5241758378       -8.4035825018       -3.9399424519
 H        -8.8909870239       -8.3319880243       -4.3978494935
 H        -6.6795040997       -0.2560756919       -7.8546452248
 H        -6.4504169251       -0.9621864253       -6.2745676364
 H        -8.0398658418       -0.9055307441       -7.0161502139
 H        -8.2097428238       -3.7301605094       -9.2699808623
 H        -8.0649238187       -2.0819509826       -9.7783399698
 H        -9.0613750794       -2.6153073497       -8.2928513364
 H        -0.5123583764       -1.6546715377      -11.1545659852
 H        -0.7483188980       -1.8844649556      -12.9683035183
 H        -1.7533508414       -2.5664267386      -11.7519511818
 H        -1.6237315956        1.7792217536      -11.9912977688
 H        -0.4211813170        0.9497510887      -12.5764043992
 H        -0.7587350663        0.7348665460      -10.8228525952
 H        -3.1247949830        3.5297867325      -18.0011685618
 H        -4.7394822920        2.9517598598      -18.4041148291
 H        -3.4949604713        2.8252923581      -19.5961739541
 H        -4.4935808060       -0.6447220851      -18.3460827437
 H        -5.0698591901        0.4893786896      -19.4593171971
 H        -5.5519167447        0.5691722386      -17.7766314738
 H         3.0602739087       -2.1871864927      -20.0740690317
 H         1.4428193121       -1.4847693901      -20.4242900623
 H         1.7897264450       -2.2454164225      -18.8940970226
 H         3.6984542618       -1.3211931406      -17.3172220879
 H         2.3173396669       -0.5176533601      -16.7807790988
 H         3.7461711015        0.4254747144      -17.0488863518
 H         7.6005762558        1.3946638884      -22.6797119791
 H         8.7300839572        1.7522649676      -21.2644031919
 H         8.7155354977        2.8670035456      -22.5874000461
 H         8.3125379385        4.8084238931      -20.7910819108
 H         8.1524785360        3.6160350043      -19.4047942317
 H         6.9602420094        4.7992873553      -19.8450610182
 H         1.2332305903        4.5004269676      -25.9687203095
 H         0.9062923184        4.8532123245      -24.1735800749
 H         1.9914143539        3.5636592236      -24.8181740580
 H         4.2038913858        6.0820384098      -26.3761457838
 H         3.2468407367        4.7952916269      -26.9302316321
 H         4.5803336042        4.4006153269      -25.8796746585
 Na       -6.3225527134       -4.1652135833       -3.3194218765
 Na        3.1945895079        2.6109157955      -21.3618173661
