232

 C       -22.7439143614       -6.0952745106       -2.5430406344
 C       -21.3899169542       -5.8394295944       -3.0421823297
 O       -20.4282619928       -5.9829874839       -2.3111828039
 C       -21.1746528070       -5.4047585393       -4.5772906788
 C       -20.4854068585       -3.9316784340       -4.5713150438
 O       -20.2500065915       -3.4682774133       -3.4976576987
 C       -19.9950496757       -3.2280946447       -5.8774182821
 C       -18.7855522438       -2.2864707018       -5.7185086953
 C       -17.7272874463       -2.8052270714       -4.8038749370
 O       -17.7074440295       -3.9784022685       -4.5358426634
 C       -16.5128095691       -1.9489590657       -4.1696778089
 C       -16.1954571569       -2.6934899594       -2.8349911034
 O       -17.1083586462       -2.7266414585       -2.0131295732
 C       -14.8658192211       -3.3574312974       -2.6004127127
 C       -14.8883258511       -4.0931513578       -1.1824681327
 C       -15.3609049468       -5.6118939505       -1.1642006612
 O       -16.4767024049       -5.8499566801       -1.5772593986
 C       -14.5282694716       -6.6435983596       -0.3843999855
 C       -13.1266273972       -7.0107934068       -1.0505627986
 O       -12.5374797772       -6.1326863647       -1.5831223461
 C       -12.6127145697       -8.4190163421       -0.9961235565
 C       -11.1421356225       -8.5559032257       -1.4548941520
 C       -10.7303942501      -10.0090214426       -1.5305211629
 O       -11.3885309962      -10.9436959398       -1.1081254696
 C        -9.5452686163      -10.3461289980       -2.7669598974
 C        -8.4223716379       -9.2684792953       -2.7738737258
 O        -8.5466663013       -8.2968270409       -2.0588144464
 C        -7.1631109039       -9.3857297972       -3.6884431391
 C        -6.3623667220       -7.9935943187       -3.5682429564
 C        -6.8081016608       -6.9964613621       -4.6962531476
 O        -7.5509108000       -7.3850976982       -5.5968223115
 C        -6.1167498611       -5.6183884694       -4.7721104440
 C        -4.8695780770       -5.8555335401       -5.7511585198
 O        -3.7646291445       -5.8889386398       -5.3539939604
 C        -5.2031371544       -5.8973247141       -7.2836506535
 C        -4.5016055959       -4.6669609838       -7.9996047430
 C        -4.7259896402       -4.6856894747       -9.5397632897
 O        -4.8399380695       -5.7394430697      -10.1709318700
 C        -4.5059358227       -3.3101731168      -10.3016017580
 C        -2.8892411556       -3.4249158222      -10.6128883668
 O        -2.1305619781       -3.0903169803       -9.7325740861
 C        -2.4305717820       -3.9524039569      -11.9779327809
 C        -0.9986030319       -4.6898040532      -11.8101429402
 C         0.0705416096       -4.0711442641      -12.7965360915
 O        -0.2917235590       -3.1582286607      -13.5059143317
 C         1.6038381899       -4.6126565264      -13.0328300596
 C         2.5964291931       -3.3982173445      -13.3724484597
 O         3.3093120251       -3.3603661449      -14.3462118643
 C         2.5446456931       -2.2016735051      -12.3232625412
 C         3.8948526459       -1.4078450468      -12.1606837440
 C         3.7582263620        0.1187662541      -11.8092648727
 O         2.6436641427        0.6014541356      -11.8434030184
 C         4.9610196524        0.9846750768      -11.3602313909
 C         5.0896497418        2.1509974151      -12.4957727195
 O         6.1220455163        2.1619654152      -13.1766255233
 C         3.9766188348        3.2882715504      -12.3375141262
 C         4.4415157493        4.6353765230      -11.9472066794
 C         5.3339224396        5.2169132137      -13.0837574707
 O         5.1377278263        4.8179281678      -14.1873620012
 C         6.4746384020        6.2444782654      -12.8473617156
 C         6.9316087481        6.7956451803      -14.2153659691
 O         6.2805496490        7.6675885995      -14.7595090989
 C         8.1713821099        6.2453920776      -14.9136692195
 C         8.2451411582        6.7816534672      -16.3973749166
 C         7.1837699143        6.0998541353      -17.2450651646
 O         6.7782404629        4.9907065906      -16.9609938226
 C         6.6440618534        6.8386299868      -18.4576160973
 C         8.0584360707        7.2292400800      -19.2883210615
 O         8.8901298995        7.8903822273      -18.7051598549
 C         8.4373140427        6.8476111201      -20.7273057530
 C         9.8323525687        6.2364901047      -20.7745812386
 C        10.0602185077        4.8129300596      -20.1942807571
 O        10.0759272278        4.8876171740      -18.9746671145
 C        10.0547007071        3.4600745935      -20.9805400259
 C         9.2325833526        2.6147207370      -19.9355324303
 O         8.0091436444        2.7186387200      -20.0799106525
 C         9.6673921919        1.6281796425      -18.9185879385
 C         8.6606802674        0.4807328832      -18.6375551040
 C         7.3522094499        1.0847373307      -18.1017268502
 O         7.5008774139        1.8929046995      -17.1945188084
 C         5.8925219237        0.4758703052      -18.3026438989
 C         4.7678592268        1.5491369368      -18.4634160204
 O         4.3848069537        2.1062594345      -17.4648970457
 C         4.3756828431        2.0329258688      -19.8347541102
 C         5.7088500309       -0.5331822162      -19.5099862754
 C         5.6038159036       -0.2973750681      -16.9816128852
 C         9.3465894533        3.5132369124      -22.3719499801
 C        11.5254570218        2.9355233976      -21.0515507761
 C         5.7972291563        5.9051948117      -19.3918407424
 C         5.9597461219        8.1912307814      -18.1349038758
 C         5.8050858287        7.4737812186      -12.0636513108
 C         7.6604948197        5.7262143119      -12.0285224764
 C         4.7251654550        1.6689104896       -9.9842628807
 C         6.2047911460        0.1425918517      -11.2762151872
 C         2.0033563979       -5.2798899459      -11.7732621529
 C         1.6548343712       -5.6186254125      -14.2561760967
 C        -5.2597997427       -3.4663494873      -11.6932164731
 C        -4.9424376674       -1.9438210288       -9.7257446872
 C        -6.9810106832       -4.5767770342       -5.4712958727
 C        -5.6594162890       -5.0927832791       -3.3876287923
 C        -8.9331167045      -11.7212013992       -2.5275439709
 C       -10.3384331355      -10.3332278001       -4.0834891622
 C       -14.1588250581       -5.9699388281        0.9674135216
 C       -15.4440270436       -7.8304148575       -0.0953646579
 C       -15.2510448982       -1.9589609892       -5.0305804818
 C       -16.9335959996       -0.5919097731       -3.7163548067
 C       -20.1261192741       -6.3492625791       -5.2172606113
 C       -22.4586040499       -5.2990449133       -5.4926210334
 H       -23.5304721401       -5.9563063770       -3.3065955110
 H       -22.6984752545       -5.4311592302       -1.6663100366
 H       -22.8336311591       -7.1004865761       -2.2234162216
 H       -20.7887574525       -2.5564359012       -6.2926640919
 H       -19.8334200398       -4.0434071645       -6.6052921970
 H       -19.1386913105       -1.2615257718       -5.4510162441
 H       -18.4080586031       -2.1007725317       -6.7586356412
 H       -14.0705526095       -2.6380194870       -2.4264882365
 H       -14.6605980397       -3.9804480312       -3.4537361914
 H       -15.6762462254       -3.5594867393       -0.5595867453
 H       -13.9293055776       -4.0573118204       -0.7659899666
 H       -13.3367097755       -8.9475727647       -1.6300852776
 H       -12.6612109006       -8.7330217936        0.0153569806
 H       -10.4489539497       -8.1562527265       -0.8153685319
 H       -10.8872722247       -8.1056898559       -2.4163556033
 H        -7.3986214664       -9.7294861224       -4.6999812408
 H        -6.5341740498      -10.1763018520       -3.2210478386
 H        -5.3129491172       -8.1771515978       -3.5701352756
 H        -6.7343689362       -7.6454654039       -2.5426699701
 H        -6.2306643802       -5.7795283182       -7.4315393614
 H        -4.8942507425       -6.8440109417       -7.6888010564
 H        -3.4746643850       -4.7371946898       -7.9289338049
 H        -4.7314967599       -3.6851782013       -7.5900009302
 H        -2.1974680795       -3.1282873386      -12.6685626316
 H        -3.0494698416       -4.6235660334      -12.4399705061
 H        -1.1114149485       -5.7726406328      -11.9695589601
 H        -0.5257719264       -4.6014996209      -10.8862504180
 H         2.3146720093       -2.7136456079      -11.4205613222
 H         1.7334095446       -1.5718341473      -12.6071832286
 H         4.3702014242       -1.2924258824      -13.1527001413
 H         4.5227348688       -1.9341743243      -11.4048819666
 H         3.2083258839        2.9391113796      -11.7227195572
 H         3.4383809660        3.4469171882      -13.2724664057
 H         4.9277002018        4.7833957183      -10.9314484328
 H         3.5232633072        5.3227367459      -11.9261085925
 H         8.2388910202        5.1628874974      -14.7621475559
 H         9.1021834542        6.5494935926      -14.4511364627
 H         9.2776780858        6.4890738687      -16.8316903002
 H         8.0461053673        7.7824911953      -16.4821902543
 H         8.4442541508        7.8437008171      -21.1115416604
 H         7.7812965953        6.1621001729      -21.2388723884
 H        10.3927247970        6.9589788361      -20.1163882854
 H        10.1863338699        6.2180301178      -21.7845613262
 H         9.9778433312        2.0539503627      -17.9950972747
 H        10.5489734594        0.9845158939      -19.1954461153
 H         8.9543857190       -0.1181364185      -17.7777134970
 H         8.5518574663       -0.0813785215      -19.6036894813
 H         3.5983244801        1.3405956419      -20.2706002547
 H         5.3316070091        1.9527981390      -20.3745114925
 H         4.1577598656        3.0486525697      -19.7636342536
 H         4.8010040217       -1.0849320935      -19.4870634449
 H         6.3736931709       -1.4316284860      -19.3970702574
 H         5.9850331450       -0.1677501683      -20.5280521896
 H         5.7755658935       -1.3503526303      -17.0398105490
 H         4.5532199133       -0.4782390005      -16.8036469746
 H         5.9954611183        0.2354292790      -16.0820880946
 H         9.4518668824        2.5260685605      -22.7503173163
 H         9.7796980766        4.1309062437      -23.1223926973
 H         8.2969717843        3.6342338323      -22.4229248053
 H        11.4937788815        1.8760591495      -21.0528962926
 H        12.0795084716        3.3652581281      -20.2309808536
 H        11.9636317293        3.2739213559      -21.9729431340
 H         4.8967128478        5.5250206798      -18.8435011666
 H         6.3427248486        5.0059728778      -19.7434626662
 H         5.4572610784        6.6410254468      -20.1646743590
 H         6.6556965205        8.8848957809      -17.7275631413
 H         5.0642434131        8.0671841195      -17.4411291946
 H         5.5810042182        8.6585445771      -19.0283619548
 H         6.4187785424        8.4208741756      -12.1050213290
 H         5.6247541384        7.1855925148      -11.0662080459
 H         4.7643236688        7.5839948581      -12.2850693724
 H         7.3624834170        5.4745850886      -11.0337337043
 H         8.4193646581        6.4417886906      -11.9270451685
 H         8.1142535169        4.8609762731      -12.5578813476
 H         5.7058044834        1.7868764532       -9.4654278309
 H         4.0393394430        1.0021030200       -9.3087228577
 H         4.1474267107        2.5674815518      -10.0175499951
 H         5.9200296961       -0.6427270936      -10.5228923769
 H         6.9553017009        0.7152494016      -10.7738871005
 H         6.5111975263       -0.2341087107      -12.2191076692
 H         1.9111935436       -4.6416267544      -10.9482693009
 H         3.0697077902       -5.6527650922      -11.7693771484
 H         1.3700544976       -6.1436161085      -11.6791297322
 H         1.1302421953       -6.5127430948      -14.0676735299
 H         2.7080410392       -5.8420983694      -14.3284505079
 H         1.3445147394       -5.2006987645      -15.2415082864
 H        -6.3053173820       -3.1447486144      -11.7315597024
 H        -5.2486512367       -4.5515578676      -11.9935287517
 H        -4.6990899385       -2.9379586970      -12.4804547489
 H        -4.7025506818       -1.1611891325      -10.4892612215
 H        -4.4496782686       -1.6890057698       -8.8106612382
 H        -6.0085397586       -2.0059038123       -9.6247003107
 H        -7.6144003920       -4.8767480569       -6.3408041060
 H        -6.2423436821       -3.9332895520       -5.8501109290
 H        -7.6262220504       -3.9870354965       -4.8135155380
 H        -6.5922071445       -4.8612628087       -2.8414280723
 H        -5.0171738579       -4.1902912865       -3.4088615839
 H        -5.1645158669       -5.8520116605       -2.8651388164
 H        -9.6670985017      -12.5170747417       -2.6432613222
 H        -8.3497713398      -11.7446877697       -1.5960080364
 H        -8.1757004007      -11.9492203133       -3.2790482197
 H       -11.1469636113      -11.0432042399       -3.9246068516
 H        -9.7860117099      -10.6298803860       -4.9612283066
 H       -10.7365598829       -9.2895180526       -4.3418724883
 H       -15.1392964096       -5.8288434587        1.3693738039
 H       -13.6473294838       -5.0309072610        0.9059208038
 H       -13.5324213582       -6.6535949764        1.4484468976
 H       -15.7386883157       -8.2598322226       -1.0274544339
 H       -16.3561882867       -7.6151084699        0.3294680786
 H       -14.9787242551       -8.5564789980        0.5108574448
 H       -14.9580844477       -3.0530455574       -5.2649808827
 H       -14.4914904628       -1.3987986371       -4.5501545288
 H       -15.4475617784       -1.4832834058       -6.0015948441
 H       -17.9212617703       -0.5484459223       -3.4429300475
 H       -16.7481986052        0.2459462074       -4.4283277051
 H       -16.3013343686       -0.2016755185       -2.9158940148
 H       -19.1602953851       -6.0135040349       -4.7943340416
 H       -20.1788549306       -6.2028418320       -6.3631350013
 H       -20.2370760196       -7.4394857578       -5.0709179203
 H       -22.1845252640       -4.7995512250       -6.4547356563
 H       -23.2480851918       -4.7178948357       -4.9931496837
 H       -22.7991380035       -6.2999093478       -5.7038065406
 Na      -18.4440942915       -4.6483008001       -2.4226161555
 Na        5.8845303462        3.1069572479      -15.7155156720
