232

 C         1.5820455967        7.3848816391      -26.1115677264
 C         2.3774541687        6.9521022285      -24.8741455610
 O         2.7625037464        7.7820885879      -24.0966056610
 C         2.6980267925        5.3751151044      -24.8267009208
 C         3.3747396655        4.9863822657      -23.5383924224
 O         2.8396736441        4.1591463240      -22.7578370117
 C         4.6230319862        5.8460027132      -23.1734086099
 C         5.5696365212        5.3169716939      -22.0542764223
 C         5.9126460244        3.8439297131      -22.1783647962
 O         5.4154081205        3.1547078112      -23.0105967370
 C         6.9455288912        3.1400813084      -21.2246594918
 C         6.2083817842        2.0524537179      -20.4427132858
 O         5.1944339578        2.4400750941      -19.8051938395
 C         6.4329922684        0.6359965607      -20.4446885053
 C         5.4555183857       -0.2596335953      -19.6211895193
 C         3.9735368829       -0.0741549250      -20.1555114701
 O         3.8239343228        0.3521307648      -21.2533494875
 C         2.7306260750       -0.3511526463      -19.2208502835
 C         1.4810587992        0.7658023029      -19.0614654077
 O         1.6363716974        1.8588989825      -19.5106895810
 C         0.1716224824        0.5338495030      -18.2372298433
 C        -1.0883047648        1.2091848991      -18.8432442185
 C        -2.3856918339        0.3958157847      -18.5483600827
 O        -2.4894180296       -0.7466718901      -18.8673363233
 C        -3.5963099181        1.2152305301      -17.9192448109
 C        -3.3282417924        1.4071869732      -16.3785511340
 O        -2.2796763486        1.9615303128      -16.0955940391
 C        -4.1634382740        0.6348602833      -15.3885950649
 C        -3.5939126730        0.7171090949      -13.9948634367
 C        -2.9333165470       -0.4782787234      -13.4929352630
 O        -2.9433346199       -1.5234285637      -14.1536873539
 C        -2.2146011820       -0.3706795507      -12.0295900010
 C        -3.4387417607       -0.3851568650      -10.8759773695
 O        -4.1345805172        0.6011048730      -10.7254664611
 C        -3.7118410724       -1.6662804585      -10.0842195974
 C        -4.9473031608       -1.4635271321       -9.1481929046
 C        -5.8112673886       -2.6804715188       -8.8690643921
 O        -5.5343068146       -3.7721736963       -9.2498749610
 C        -7.0563453150       -2.3841892938       -7.8201602513
 C        -6.9821940773       -3.5539391072       -6.7364184018
 O        -6.3078378805       -3.2826317632       -5.7672528324
 C        -7.7185025479       -4.8188203884       -6.9568179269
 C        -7.8266284089       -5.7472672216       -5.7943293213
 C        -8.9495793695       -5.3394946682       -4.8681281075
 O        -9.5334942650       -4.2783824076       -5.0421487458
 C        -9.4909873983       -6.4420646077       -3.7870545796
 C        -8.4920557892       -6.4212383008       -2.5087279133
 O        -7.6575265166       -5.4922212309       -2.4203896709
 C        -8.7694990174       -7.3142147431       -1.2939325088
 C        -7.6459028449       -8.0381792098       -0.5483089480
 C        -7.1653993067       -9.2981104625       -1.3258792505
 O        -7.6038182590       -9.6906141740       -2.3391537578
 C        -5.7084403360       -9.7253721201       -0.8966410668
 C        -4.7806421004       -8.7455181200       -1.7512708045
 O        -4.0261573436       -8.0283300520       -1.1740079150
 C        -4.8315688210       -8.8123028839       -3.3654737251
 C        -3.6267977072       -8.1416028590       -4.0084145174
 C        -3.8942256382       -6.6252361899       -3.9674586437
 O        -5.0102956560       -6.2086907186       -4.1060785439
 C        -2.6049753401       -5.6811607502       -3.4839847357
 C        -2.8366263655       -4.1937141510       -3.9785157255
 O        -3.8916704187       -3.5837707957       -4.0573594752
 C        -1.6789032681       -3.4126301945       -4.5914729246
 C        -1.9800542754       -1.8643474783       -4.5952656899
 C        -1.5681567232       -1.1794206504       -3.2577245568
 O        -1.2647183258       -1.8854674779       -2.3245748792
 C        -1.6537662411        0.3264619337       -3.0072850940
 C        -3.3017624821        0.4410691005       -2.8262354903
 O        -3.9600976491        1.1107319238       -3.5543537040
 C        -3.8115572098       -0.5628643018       -1.7629382503
 C        -5.3092745170       -0.5179840957       -1.4581916888
 C        -5.9232001221       -1.9274227704       -1.1834322158
 O        -5.4604446908       -2.9398911154       -1.5050827012
 C        -7.4397872644       -1.8718215583       -0.6291256969
 C        -8.1543573386       -1.7134921634       -2.0600199456
 O        -7.8323575930       -2.4221845630       -2.9947456824
 C        -9.1765809846       -0.5916947966       -2.2408053289
 C        -9.9190325923       -0.7515682047       -3.5287933802
 C       -10.9478422353        0.5012979621       -3.7900208497
 O       -10.8258436325        1.4615413161       -3.1435540002
 C       -12.1556123749        0.2078201541       -4.9251500115
 C       -11.5522249278       -0.3594934311       -6.3674996948
 O       -10.4676963070       -0.7864769710       -6.5652650011
 C       -12.6041300352       -0.3782694356       -7.5476884875
 C       -13.0722589322       -0.9968358081       -4.4319004473
 C       -12.9955003416        1.4236775194       -5.1998134544
 C        -7.7887237100       -3.2240438159        0.1850576150
 C        -7.6060538627       -0.6760014292        0.2755564892
 C        -0.8879794378        0.8341996679       -1.8112812793
 C        -1.1628414070        1.1141752173       -4.2168440165
 C        -2.5367977574       -5.4547789323       -1.9415023887
 C        -1.2819777033       -6.1535498004       -4.1283896873
 C        -5.3424367943       -9.4611947432        0.5253029986
 C        -5.5252693884      -11.1177941153       -1.2804651587
 C       -10.9422502947       -6.0725682646       -3.4061535064
 C        -9.5489106162       -7.9226377501       -4.3822760048
 C        -7.1333827996       -0.8924817221       -7.1771468250
 C        -8.2987555297       -2.5692654948       -8.7368278359
 C        -1.1506566476       -1.5530771826      -11.8717707350
 C        -1.5166145861        0.9302519344      -11.9489786817
 C        -3.7925356722        2.7134724717      -18.5523425314
 C        -4.9170804080        0.4220595271      -18.1243753713
 C         2.0729472279       -1.7617976966      -19.6173704736
 C         3.1048165314       -0.4733783265      -17.7300314109
 C         8.1884798670        2.4969937598      -21.9618760555
 C         7.5096735357        3.9929259028      -20.0580526763
 C         1.2930904747        4.7070902343      -24.9765107107
 C         3.6228769839        5.0948403170      -26.0106710177
 H         2.0332480764        8.2887555213      -26.4533084029
 H         0.5491410787        7.5486142007      -25.7844095234
 H         1.5155540860        6.6713940426      -26.9107164832
 H         4.2240644603        6.8411454124      -22.8185380448
 H         5.1856468436        6.1170152600      -24.1760045735
 H         5.1160578884        5.4880654481      -21.1308318551
 H         6.4267489334        5.9506960042      -22.1319211864
 H         7.5392959407        0.4823117278      -20.0449929516
 H         6.4671098275        0.3426828550      -21.4689235996
 H         5.5062751056       -0.0198018480      -18.6074269255
 H         5.6633091198       -1.3981376227      -19.4367312360
 H         0.2573920262        0.9836322158      -17.2258666370
 H         0.0593560659       -0.5082110825      -18.1928488715
 H        -1.1005285047        1.1287230996      -19.9508047797
 H        -1.2380325240        2.1384530847      -18.4130583310
 H        -4.0754626728       -0.3893690327      -15.7054402284
 H        -5.3041865390        0.8173425989      -15.4025355039
 H        -4.3268470828        1.1196424981      -13.3546217009
 H        -2.7511327758        1.4084454269      -14.0700218400
 H        -2.7453306031       -2.0665231947       -9.5670551701
 H        -3.9882277141       -2.3855729930      -10.8979113327
 H        -5.5561410301       -0.6308708313       -9.4930675647
 H        -4.6552603147       -1.0371041924       -8.0765988113
 H        -7.2963282890       -5.2859935383       -7.9349420027
 H        -8.7667835047       -4.5380329646       -7.3202776392
 H        -7.0130198956       -5.9659324128       -5.1368280594
 H        -8.0802571861       -6.7201892190       -6.1575404879
 H        -9.6137683280       -8.0287131531       -1.5299168178
 H        -9.1876407545       -6.6008749402       -0.4965325099
 H        -8.0930562338       -8.4502042595        0.3451416230
 H        -6.8410829557       -7.3424282613       -0.2122724911
 H        -5.7622612973       -8.3327241289       -3.5684857183
 H        -4.8431833987       -9.8481929159       -3.7047781114
 H        -3.4841564665       -8.4010319161       -4.9863022562
 H        -2.8042895801       -8.3892424505       -3.3408808159
 H        -1.7655113552       -3.7015831163       -5.7229585847
 H        -0.7307339024       -3.6777196857       -4.2187794649
 H        -2.9867690983       -1.6616388186       -4.9772095342
 H        -1.3933928413       -1.4457129960       -5.5325740583
 H        -3.2593437241       -0.5339261472       -0.8180590426
 H        -3.6465936272       -1.6218090695       -2.1672301449
 H        -5.9376986760       -0.1008750088       -2.2783929560
 H        -5.4830991457       -0.0308907890       -0.4960667538
 H        -8.6589877930        0.3486409644       -2.2021145140
 H        -9.7656555442       -0.4609962078       -1.3710866787
 H       -10.5117107491       -1.6232946030       -3.5401850670
 H        -9.2009542128       -0.9298852842       -4.2877094969
 H       -12.6976853342        0.7030313046       -7.8254693090
 H       -13.5012901505       -0.7930564161       -7.1568660261
 H       -12.3932612246       -1.1101238204       -8.3701822602
 H       -12.4806059893       -1.8728860311       -4.0147042129
 H       -13.8423213272       -1.2224258281       -5.1746578177
 H       -13.4724185765       -0.6362197669       -3.4819635298
 H       -12.4875600108        2.0884680503       -5.9331838745
 H       -13.1205732045        1.9325342577       -4.2782409865
 H       -13.9047099495        1.0395464816       -5.5728105252
 H        -8.8420465037       -3.1514558574        0.4479952129
 H        -7.2555445136       -3.2951625712        1.1557225264
 H        -7.8383327379       -4.0140656385       -0.4944205823
 H        -8.3831480374       -0.7742513673        0.9696886168
 H        -7.5217319096        0.3462062318       -0.1638503712
 H        -6.6640532936       -0.6976128209        0.8337192230
 H        -1.4076789158        1.5402251154       -1.2685101877
 H         0.0883969467        1.3331282439       -1.9905230474
 H        -0.8514709105       -0.0715770132       -1.1952408749
 H        -0.8858163344        2.1784285067       -3.9280819920
 H        -1.9719895588        1.0224035693       -4.9827818763
 H        -0.1780390851        0.6880894101       -4.4564451096
 H        -2.2663209016       -6.2336755691       -1.2755834672
 H        -3.5750758745       -5.0773847889       -1.6318847121
 H        -1.6519985453       -4.7198884554       -1.8225647107
 H        -1.0587497820       -7.1898424769       -3.8103986852
 H        -0.4198144805       -5.5074953490       -3.8061222694
 H        -1.4944378163       -6.0788729145       -5.1965273685
 H        -5.5069567701       -8.4275978354        0.7739970493
 H        -4.3463982125       -9.8349191889        0.7767478780
 H        -6.0399741155       -9.9986079544        1.1938938116
 H        -5.9361678816      -11.3291422149       -2.2504099970
 H        -5.9589926852      -11.7995967045       -0.5636056467
 H        -4.4536017759      -11.2084447630       -1.3009117442
 H       -11.3163821783       -5.5130263518       -4.2497741498
 H       -11.0143167306       -5.5322167618       -2.4943621840
 H       -11.4354912853       -6.9994867637       -3.2739931105
 H       -10.2748390109       -8.0318970842       -5.2300347677
 H        -9.8373764295       -8.7405456845       -3.7479362419
 H        -8.5627013769       -8.2725039243       -4.9080747686
 H        -7.4908251726       -0.2887642514       -8.0667365364
 H        -6.1426541983       -0.6253593776       -6.6399163115
 H        -7.9113011118       -0.9094709775       -6.3725079332
 H        -8.1776511892       -3.4114971997       -9.4054372151
 H        -8.5360992550       -1.7059538913       -9.3520342216
 H        -9.1255332851       -2.8796851672       -8.1495445003
 H        -0.8582764337       -1.6781810746      -10.8889409479
 H        -0.2071252553       -1.3844539708      -12.3871574541
 H        -1.5066340938       -2.5284539131      -12.2427555825
 H        -2.1130310323        1.7435131475      -11.8002867665
 H        -1.0802724322        1.3575353208      -12.8967499138
 H        -0.8426030713        0.9974955547      -11.1136745454
 H        -2.7707753989        3.0529765358      -18.6512689595
 H        -4.3379990638        3.3562957397      -17.8047498897
 H        -4.1952875278        2.6124788362      -19.5763025392
 H        -5.0077220535       -0.5627513004      -17.7401891805
 H        -5.0232112770        0.1756906047      -19.1857130765
 H        -5.8310776333        0.9137839034      -17.8054286000
 H         2.6703186922       -2.6015226206      -19.3101212587
 H         1.9774327938       -1.7872202916      -20.7129667532
 H         1.0364014253       -1.8847193476      -19.1939187457
 H         4.0039214583       -1.0782612756      -17.6335123821
 H         2.3492825065       -0.9826705626      -17.1319683706
 H         3.2803183899        0.4502637021      -17.1715868291
 H         7.8821351058        1.8577895873      -22.7292409085
 H         8.9207381258        2.0550689806      -21.3446450540
 H         8.7471303858        3.2911369270      -22.3795676315
 H         7.9144273479        4.9758800338      -20.2673862305
 H         8.2251562480        3.4090375772      -19.4987327282
 H         6.7462860849        4.3282939434      -19.4558405558
 H         0.7483742167        5.2335346826      -25.7615789912
 H         0.8796892619        5.0132350867      -23.9821424812
 H         1.3494063900        3.6394928599      -25.1802147181
 H         4.6897390081        5.4051752128      -25.7166440857
 H         3.2576401668        5.6683008666      -26.8368661294
 H         3.6774871345        4.0350485758      -26.3009804213
 Na       -6.1091143638       -3.9608496443       -3.5712611253
 Na        3.0840793143        2.7403008877      -21.0629699336
