232

 C         1.4890152314        7.4481303657      -26.0235656357
 C         2.4316777411        7.0419320294      -24.9761475416
 O         2.9662720732        7.7665686722      -24.0984220835
 C         2.6658906915        5.4010787478      -24.8210761321
 C         3.2933978496        4.9480971713      -23.4385147273
 O         2.6724359297        4.1785209125      -22.7022132607
 C         4.5522179006        5.7165940101      -23.0672138022
 C         5.5394765117        5.3213334877      -21.9505281378
 C         5.9838936824        3.9144996130      -22.1869957429
 O         5.3334502785        3.1399939746      -22.9141479237
 C         7.0262648572        3.2354290622      -21.1896187852
 C         6.0416427971        2.0063756052      -20.5382032173
 O         5.1817089344        2.5048596156      -19.8046601601
 C         6.3527206106        0.4436538407      -20.5694202705
 C         5.4136141062       -0.2248619217      -19.6569774995
 C         3.8705472029       -0.0252332573      -20.0237550183
 O         3.7170311876        0.4245900896      -21.1456172475
 C         2.5454153519       -0.4461886853      -19.1792856325
 C         1.4698652610        0.7272244362      -19.2081543282
 O         1.6203877392        1.8362038868      -19.6463523467
 C         0.2476606182        0.4313758206      -18.3265504986
 C        -1.0198758459        1.1116845907      -18.9486664166
 C        -2.4247986185        0.3983610699      -18.5384758605
 O        -2.5100569702       -0.7743839618      -18.6577647971
 C        -3.6229270395        1.1808993231      -17.9132260637
 C        -3.2343702742        1.3200204949      -16.4081504713
 O        -2.3057143422        2.0075599151      -16.0026327117
 C        -4.0645320342        0.5977373974      -15.4234051206
 C        -3.6169156511        0.7900528676      -14.0185831434
 C        -2.9419888242       -0.5068558645      -13.4509964943
 O        -3.0019249731       -1.5592923757      -14.0551291607
 C        -2.3051509601       -0.3739175813      -11.9500879055
 C        -3.4457323763       -0.4275468113      -10.8514328589
 O        -4.0523426867        0.6115563984      -10.5348867279
 C        -3.8081738095       -1.7010444645      -10.0589371404
 C        -4.8971980726       -1.4358261479       -9.0143414293
 C        -5.8089518932       -2.6281981658       -8.7935086767
 O        -5.6342722062       -3.7294386309       -9.2370033640
 C        -7.1222248541       -2.3711340335       -7.9190493938
 C        -7.0902949866       -3.4811869599       -6.8055742241
 O        -6.4761462382       -3.2624801439       -5.7856326550
 C        -7.7885190927       -4.8298174919       -7.0714143109
 C        -7.7057436144       -5.6828051813       -5.8521518428
 C        -8.8613708111       -5.4366512235       -4.8429463749
 O        -9.5374578539       -4.3985457636       -4.9030671299
 C        -9.3838973875       -6.4764564797       -3.7981187013
 C        -8.4757808693       -6.3382436517       -2.4343049618
 O        -7.6522547844       -5.4968672964       -2.3173616979
 C        -8.9117607569       -7.2590372781       -1.2302499571
 C        -7.7329205751       -8.0981187290       -0.6082036887
 C        -7.0603167798       -9.0844620147       -1.5105310245
 O        -7.5834964519       -9.5673275984       -2.5458339791
 C        -5.5814627026       -9.6474743538       -1.0193314787
 C        -4.6842648507       -8.7308052570       -1.8125252852
 O        -3.8881129873       -7.9484922842       -1.3006643380
 C        -4.7070688320       -8.8538463835       -3.3627480794
 C        -3.5988772432       -8.0526922434       -3.9933438686
 C        -3.8288450522       -6.5145592869       -3.8282208226
 O        -4.9895734485       -6.1090911982       -3.9601465567
 C        -2.6643607084       -5.5189666541       -3.5805299338
 C        -2.8583635470       -4.0845896826       -4.1607661627
 O        -3.9442600032       -3.5729458888       -4.0850433570
 C        -1.5434919283       -3.3817822118       -4.6297975680
 C        -1.7901606182       -1.8840591242       -4.6679070877
 C        -1.4831697011       -1.3176679886       -3.2860864989
 O        -1.2372233069       -2.0860497513       -2.3570799519
 C        -1.6982709807        0.2854945252       -3.0840600827
 C        -3.3314125815        0.4308658689       -2.8397825589
 O        -4.0886932262        1.1374933217       -3.5162608437
 C        -3.7689601951       -0.5822667955       -1.7818799086
 C        -5.2599622773       -0.5306201066       -1.4046483205
 C        -5.8646074741       -1.9241099875       -1.1674793205
 O        -5.3584866174       -3.0128108069       -1.5470867069
 C        -7.3781994925       -1.8004238475       -0.6498033912
 C        -8.1447361678       -1.6158025951       -2.0837592652
 O        -7.7379295305       -2.3048533087       -3.0606608168
 C        -9.1561823214       -0.5399269206       -2.2999205956
 C        -9.9372848388       -0.6868087344       -3.5793297124
 C       -10.9836844526        0.3683985845       -3.7926385625
 O       -10.9445464770        1.4385104453       -3.1755114879
 C       -12.0536744209        0.1326804720       -4.8709597129
 C       -11.4992827474       -0.4133481382       -6.2791755487
 O       -10.4085144980       -0.9018874455       -6.3940345124
 C       -12.4655152653       -0.3420286817       -7.3767115015
 C       -13.0411933499       -1.0286550213       -4.4928388742
 C       -12.8872682267        1.4705330064       -5.0776630102
 C        -7.8634005525       -3.1493993256       -0.0782093816
 C        -7.8022678259       -0.6438450573        0.2549008484
 C        -0.8349749558        0.8770288629       -1.8122148610
 C        -1.2338991963        1.1778401746       -4.3309897155
 C        -2.5310237567       -5.5872098705       -2.0466276799
 C        -1.3227758452       -6.2290303712       -4.0880044136
 C        -5.2678510045       -9.4931786471        0.4796272792
 C        -5.4862605919      -11.2326293194       -1.3975830244
 C       -10.8103271032       -6.0809317135       -3.3279700482
 C        -9.3303118575       -7.8500410839       -4.4183575943
 C        -7.0099089321       -1.0394770533       -7.2262849474
 C        -8.3762829902       -2.4641300715       -8.7908577696
 C        -1.3327331138       -1.5448459418      -11.8194609374
 C        -1.5669410454        1.0233334347      -11.7915040832
 C        -3.7969216561        2.5487371602      -18.5301413911
 C        -4.9982120694        0.4369071067      -18.1191991194
 C         2.0105284867       -1.8166920588      -19.6600999933
 C         2.9500421017       -0.5561531980      -17.6499015202
 C         8.2009920543        2.6878374721      -21.9899731602
 C         7.5268350216        4.1356572759      -19.9900170490
 C         1.2591026609        4.6868223800      -24.9319464923
 C         3.5388911950        4.9489543378      -26.1200381084
 H         2.0221733842        8.2807818033      -26.5110777463
 H         0.6176506043        7.8347124670      -25.5471466221
 H         1.2302059207        6.7114346338      -26.7060310436
 H         4.2003054683        6.7351148876      -22.9820374285
 H         5.1602632481        5.7587094973      -24.0227373632
 H         5.0787594750        5.2684389098      -20.9870929978
 H         6.2847656678        6.0440816893      -21.9324314260
 H         7.3327394788        0.2365616275      -20.3365139440
 H         6.1764587499        0.1351427452      -21.5957904252
 H         5.6444543122        0.0515186817      -18.6253261390
 H         5.5200959031       -1.3214160964      -19.4685540150
 H         0.4263814282        0.9517348084      -17.3459056021
 H         0.1892487542       -0.7101641341      -18.1979895657
 H        -1.0219050374        0.9252472425      -20.0039142052
 H        -1.0700041245        2.1463083029      -18.5824230056
 H        -4.0654806338       -0.5087849470      -15.5385302192
 H        -5.1067919848        0.8850996154      -15.6205631125
 H        -4.4775764300        0.9955132789      -13.4455114922
 H        -2.9236180670        1.6126214904      -13.9911688604
 H        -2.9421640235       -1.9944463652       -9.5738112749
 H        -4.1043878419       -2.5071649349      -10.8157412191
 H        -5.6285271821       -0.6444434882       -9.4260931787
 H        -4.5035804620       -0.9443195505       -8.1205068999
 H        -7.2961534347       -5.3099980143       -7.9593102436
 H        -8.8189202324       -4.6435511238       -7.4513738655
 H        -6.7862227416       -5.5174713005       -5.2605337479
 H        -7.6419295324       -6.6962691841       -6.0750020992
 H        -9.7759632280       -7.9261492262       -1.5327883983
 H        -9.3094215883       -6.6170603649       -0.4290459423
 H        -8.0340362959       -8.6326025361        0.2645196885
 H        -6.9563672348       -7.4342403203       -0.3578664339
 H        -5.6231092971       -8.3773940007       -3.7133686354
 H        -4.6851728952       -9.9277521997       -3.6198729557
 H        -3.5838945013       -8.1470803940       -5.0722242201
 H        -2.6264230609       -8.3445997043       -3.5261711525
 H        -1.2100726486       -3.7668335717       -5.5414348593
 H        -0.7988807169       -3.6131047994       -3.8093050912
 H        -2.8323071973       -1.5818269893       -4.8934386171
 H        -1.2580578484       -1.3789715551       -5.5596665629
 H        -3.1273035793       -0.4397965608       -0.8908551198
 H        -3.5798098922       -1.6318996804       -2.0730650981
 H        -5.8809745625       -0.2554766001       -2.2822738821
 H        -5.5049239746       -0.0280513074       -0.5036202843
 H        -8.6077985455        0.4770004993       -2.3213520095
 H        -9.7239221880       -0.3678282600       -1.4050827559
 H       -10.4924570015       -1.6673697247       -3.7377862071
 H        -9.3138234129       -0.6328845449       -4.4523022038
 H       -12.6972602230        0.7122669578       -7.5712192201
 H       -13.3679172987       -1.0040629059       -7.0659544677
 H       -12.1348987101       -0.8784334772       -8.2164140642
 H       -12.5964419378       -1.9511757456       -4.4280581312
 H       -13.9138196795       -0.9540864478       -5.2198177043
 H       -13.3628323240       -0.8472218884       -3.4435041821
 H       -12.2956532552        2.1164767241       -5.6466111391
 H       -13.0762628572        1.9125772083       -4.1282304241
 H       -13.7714780637        1.1905341787       -5.6714031025
 H        -8.9331991374       -2.9911819464        0.2827322167
 H        -7.3043090400       -3.4228042721        0.8163278822
 H        -8.0976688285       -3.8653591283       -0.8897577618
 H        -8.7374663267       -0.8765800794        0.7460594319
 H        -7.8451892716        0.3200955334       -0.2430033031
 H        -7.1078154439       -0.4843908283        1.0002503817
 H        -1.4087576452        1.7275408569       -1.3861725802
 H         0.0715294572        1.2616109896       -2.0310061050
 H        -0.8889325357        0.1033601286       -1.0708411139
 H        -0.9297313295        2.1634847942       -4.0765857439
 H        -1.9436994541        1.0911135735       -5.1815961153
 H        -0.2751523875        0.7015660370       -4.4755926267
 H        -2.3452578175       -6.6511981217       -1.7298520380
 H        -3.3304764002       -5.1715123480       -1.4232878596
 H        -1.5063639207       -5.2352320872       -1.8605807237
 H        -1.2968282700       -7.1688292122       -3.5139021023
 H        -0.4721799551       -5.6830848558       -3.7496883313
 H        -1.3241259691       -6.4283778358       -5.2022067800
 H        -5.4041752343       -8.4833072423        0.8276470425
 H        -4.2984244776       -9.8514003252        0.7163501514
 H        -5.9659332563      -10.1211965970        1.0584767884
 H        -5.8959352946      -11.4195224703       -2.3796421385
 H        -5.9484982077      -11.9348299616       -0.6642435915
 H        -4.3913878647      -11.4104732762       -1.4341739760
 H       -11.1243690640       -5.3633436569       -4.0456061627
 H       -10.7818459397       -5.6895671351       -2.3517392317
 H       -11.4325746830       -6.9782765010       -3.3010309796
 H       -10.0938821245       -8.0599651137       -5.1267834090
 H        -9.3958926361       -8.6968583911       -3.7497990167
 H        -8.4202913359       -8.0412976902       -4.9803769342
 H        -7.4003704964       -0.2187855936       -7.9195214376
 H        -6.0395726014       -0.9637502869       -6.7177975698
 H        -7.6766972877       -1.1411362847       -6.3947857085
 H        -8.4953252520       -3.4620896727       -9.1669536936
 H        -8.4468225970       -1.7472726918       -9.6099355486
 H        -9.2037023721       -2.3120205950       -8.0976794024
 H        -1.1106846596       -1.9044738960      -10.7734143313
 H        -0.3060212205       -1.3437951070      -12.1697198361
 H        -1.6922541264       -2.2930980052      -12.3751713750
 H        -2.1543576355        1.9144949562      -11.8149191020
 H        -0.8146980010        1.3375033934      -12.4475486643
 H        -1.2314974383        1.0547588524      -10.7152341150
 H        -2.7602040390        3.0373113544      -18.7067256495
 H        -4.3337211161        3.0616133607      -17.8532813176
 H        -4.2869040745        2.3986672654      -19.4381580084
 H        -5.0080317656       -0.5311727128      -17.6694160545
 H        -5.1380585391        0.1842084782      -19.1633585547
 H        -5.9100488742        0.9183309576      -17.7791021060
 H         2.8038523618       -2.6379194469      -19.4464985417
 H         1.8831037739       -1.7700355230      -20.7864031369
 H         1.1087913925       -2.1092735899      -19.2163577223
 H         3.8332051102       -1.1199959659      -17.5547467095
 H         2.1788484839       -0.9922806380      -16.9712035635
 H         3.1758951440        0.3934805679      -17.1764728254
 H         7.8369277253        1.9064334615      -22.6198324490
 H         9.0768978726        2.3899059704      -21.5305261259
 H         8.5314496342        3.5426646280      -22.6686141780
 H         8.0526827033        5.0634092632      -20.2335355584
 H         8.1042431036        3.6059708305      -19.2417448374
 H         6.6099849021        4.6364860667      -19.5812692813
 H         0.8311165857        5.1137674606      -25.8876900391
 H         0.6468793069        4.7066914229      -24.0921558853
 H         1.6383580337        3.7409871482      -25.2122604584
 H         4.5683277688        5.1602720836      -25.7541154033
 H         3.2831020355        5.5523803693      -26.9345403242
 H         3.5077692327        3.8902421175      -26.4564332870
 Na       -6.1769615364       -4.0518614937       -3.6201994341
 Na        3.2315701979        2.7659395172      -21.0157812404
