232

 C         1.4802824392        7.5991194437      -25.9355184193
 C         2.4017402353        6.9938947209      -24.9239101950
 O         3.0948656248        7.6877735347      -24.2487693073
 C         2.6318474183        5.3732868018      -24.8169749585
 C         3.2357993623        5.0251476237      -23.4211612983
 O         2.6009078955        4.2813909423      -22.7168809124
 C         4.5841195283        5.7335681290      -23.0850554986
 C         5.3866157451        5.2356733186      -21.8476278391
 C         5.8225749810        3.7807167257      -21.9604911126
 O         5.3963521221        3.1196677343      -22.8961830465
 C         7.0062107084        3.1721461764      -21.1072359946
 C         6.1357434872        2.1001299119      -20.3993351205
 O         5.1806874656        2.4595495093      -19.7966324020
 C         6.1926336539        0.5500023066      -20.6376503637
 C         5.2078095818       -0.1836552995      -19.6427340493
 C         3.7481707599       -0.0082171414      -19.9895440270
 O         3.4613024237        0.4958602256      -21.0998757969
 C         2.6219178950       -0.4444577238      -19.0994740960
 C         1.4854316167        0.6637057995      -19.1907013800
 O         1.6345055183        1.6936499166      -19.8430030174
 C         0.1126848573        0.3237187122      -18.4611853622
 C        -1.0780661533        1.0742239777      -19.0372058950
 C        -2.3925940434        0.3059262974      -18.5216930813
 O        -2.4637043775       -0.9444066373      -18.4878949971
 C        -3.5668098373        1.2070491651      -17.9716843329
 C        -3.1796080392        1.2931730876      -16.4200995836
 O        -2.3050323888        2.0804013595      -16.1247647832
 C        -4.1091400746        0.4994839296      -15.3385060751
 C        -3.7137834209        0.7946809550      -13.8697276057
 C        -3.0230996207       -0.4650218446      -13.2289023862
 O        -2.9857869535       -1.5005501641      -13.8120751605
 C        -2.4041931633       -0.4239309351      -11.8711119643
 C        -3.4847969209       -0.4042428778      -10.7994178610
 O        -3.9312522644        0.6589391894      -10.4793508039
 C        -3.8753834826       -1.7721823236      -10.1239653002
 C        -4.8608804309       -1.4543180664       -9.0438965214
 C        -5.8736508089       -2.6001058752       -8.7961348074
 O        -5.6538648401       -3.7233630493       -9.2779060092
 C        -7.2221368542       -2.3498124568       -7.8916411425
 C        -7.1932129964       -3.4177932354       -6.8646429938
 O        -6.6144936275       -3.1865689638       -5.7933795785
 C        -7.8115340665       -4.8359758373       -7.0827588939
 C        -7.6807265813       -5.7472389768       -5.8419505744
 C        -8.8646609975       -5.4202771221       -4.8152065724
 O        -9.4446856461       -4.3820141434       -4.9011699112
 C        -9.2288904622       -6.5088156906       -3.7559603537
 C        -8.4894589092       -6.3750109400       -2.4219921570
 O        -7.6061653232       -5.5932140664       -2.1957793546
 C        -8.9582472985       -7.2557330604       -1.3357749535
 C        -7.7827693258       -8.0228592371       -0.6381768522
 C        -6.9953203190       -9.0708659505       -1.5344031455
 O        -7.4746046966       -9.3976420706       -2.6373569450
 C        -5.6040199936       -9.6059672430       -1.1421745265
 C        -4.5019971187       -8.8437409334       -1.9455658491
 O        -3.8759939905       -7.9947755012       -1.3464535326
 C        -4.5788139660       -8.8974304795       -3.4496195982
 C        -3.6031719817       -7.9282739770       -4.0672801646
 C        -3.8337647647       -6.4544100125       -3.8504682296
 O        -4.9899307394       -6.0451420907       -3.7946675729
 C        -2.5986165311       -5.6187117047       -3.5883430570
 C        -2.7947303082       -4.1059844829       -4.1703491030
 O        -3.8423458269       -3.5109986705       -4.1840121724
 C        -1.5650667281       -3.3787480213       -4.6879235291
 C        -1.5979563254       -1.8337532490       -4.7377756468
 C        -1.4150239135       -1.2535546765       -3.3220035119
 O        -1.1464067605       -1.9664188337       -2.3740541091
 C        -1.7371217604        0.1955825105       -3.1523895601
 C        -3.2007900290        0.3233455656       -2.8080237683
 O        -3.9789666136        1.0608377822       -3.3960690379
 C        -3.6932203537       -0.6425675159       -1.7616007531
 C        -5.2009307344       -0.4320581770       -1.3668473724
 C        -5.9484065454       -1.8074153372       -1.1362553305
 O        -5.3491183560       -2.8701688853       -1.4178270950
 C        -7.4439573950       -1.7954124215       -0.7825102125
 C        -8.0538057335       -1.5255891627       -2.2182083781
 O        -7.7519182991       -2.2226134860       -3.1415143808
 C        -9.1212859071       -0.4755508155       -2.3294155881
 C        -9.8929514208       -0.7335448751       -3.6084070838
 C       -10.9802680927        0.2920177334       -3.8442474526
 O       -11.0471551219        1.3592392684       -3.1923350536
 C       -12.0649616362        0.0782590275       -4.8966800426
 C       -11.4621946235       -0.4370736670       -6.2258318824
 O       -10.3283932966       -0.9531924301       -6.1800529028
 C       -12.3944289371       -0.2917533314       -7.4290234705
 C       -13.0311656074       -1.0322558701       -4.3646582565
 C       -12.8121382131        1.4858160222       -5.0072424792
 C        -7.9207967447       -3.1660421583       -0.3254670336
 C        -7.7973482244       -0.6831504046        0.2159791191
 C        -1.0208200632        0.7443075374       -1.8827063589
 C        -1.4127587643        1.0834486020       -4.4138025293
 C        -2.4492591187       -5.4590437533       -2.0483959848
 C        -1.2566174214       -6.2743757905       -4.2082532077
 C        -5.3528531876       -9.5229150059        0.4035792357
 C        -5.4470779508      -11.1578853444       -1.5594620459
 C       -10.7275982318       -6.1772014868       -3.2434143030
 C        -9.1364946805       -7.9180655714       -4.3330837421
 C        -7.0067559216       -0.9803103542       -7.1627256078
 C        -8.4218128268       -2.3463028710       -8.8678045417
 C        -1.4253625676       -1.5448734592      -11.7396773978
 C        -1.6593570054        0.9306662865      -11.6520437840
 C        -3.7694032545        2.6542146572      -18.5998607950
 C        -4.8601262386        0.4152651339      -18.1504951683
 C         2.0923733601       -1.6965244814      -19.7363500106
 C         2.8997365687       -0.6672315756      -17.5966610057
 C         8.2041519698        2.7968531638      -22.0284947499
 C         7.4558457869        4.1600295879      -20.0956452290
 C         1.1957168585        4.5978586449      -24.9134787018
 C         3.4712876399        4.9000526589      -25.9964710819
 H         2.0889687672        8.4318203861      -26.2984035351
 H         0.6795323782        8.0469438227      -25.3702460597
 H         1.0880944422        6.9708554759      -26.7520293462
 H         4.2682950330        6.7524244079      -22.9784897478
 H         5.1486637509        5.7894201636      -23.9562068308
 H         4.7457109014        5.3917414212      -20.9388625715
 H         6.2592789540        5.8979085046      -21.7692423455
 H         7.0865832645        0.0321929968      -20.6627639948
 H         5.6962096588        0.4260319703      -21.6229320006
 H         5.3770355194       -0.0143020822      -18.5157268256
 H         5.3832945783       -1.1964659510      -19.5925925936
 H         0.2695216972        0.6581084964      -17.4153007986
 H        -0.0580274398       -0.8162984836      -18.5056104696
 H        -1.0967921879        0.9075791211      -20.0946374716
 H        -1.1889751464        2.1190798662      -18.6216244428
 H        -4.2365745885       -0.6214039386      -15.3487741869
 H        -5.0544365240        0.8908760918      -15.5902151744
 H        -4.6209839010        1.0355753895      -13.2632926861
 H        -3.0601073207        1.6549356041      -13.9360135263
 H        -3.0312803889       -2.1074041067       -9.5925705314
 H        -4.1525667186       -2.4850579900      -10.8599073697
 H        -5.3856130657       -0.4795552599       -9.2341506890
 H        -4.3004575966       -1.3047994822       -8.1812566629
 H        -7.3045293822       -5.2907775455       -7.8818545739
 H        -8.8044128183       -4.7072695581       -7.4481844364
 H        -6.7301340578       -5.5648769988       -5.3230208427
 H        -7.6347936038       -6.8405718567       -6.0742244137
 H        -9.6567134640       -7.9886163715       -1.6498783350
 H        -9.4724977540       -6.6685931607       -0.6085954664
 H        -8.2141981691       -8.5312287803        0.2191397944
 H        -7.0235513461       -7.3364249949       -0.3566412326
 H        -5.6061710875       -8.5873547236       -3.7880146129
 H        -4.3817872599       -9.9554395631       -3.6906602103
 H        -3.5215836221       -8.0952475879       -5.2430452303
 H        -2.6236241797       -8.0468563243       -3.6033944576
 H        -1.3559209838       -3.7883207834       -5.6244984250
 H        -0.7240262332       -3.5776013984       -3.9653878454
 H        -2.4563965659       -1.2653714286       -5.1905701695
 H        -0.8405651568       -1.5464205190       -5.3721054512
 H        -3.0334368597       -0.5368515648       -0.8785416087
 H        -3.5724202398       -1.6767769011       -2.0111969523
 H        -5.7135361609       -0.1247452791       -2.2483356028
 H        -5.3548209972        0.1589781639       -0.4664173059
 H        -8.9041380000        0.6324447003       -2.1729280823
 H        -9.8321772635       -0.5877899148       -1.4274077575
 H       -10.4329210207       -1.7260721991       -3.6651040643
 H        -9.3296979995       -0.7145358090       -4.5852322167
 H       -12.6373077516        0.7283173248       -7.6250060318
 H       -13.2377722621       -0.9956942769       -7.4125948333
 H       -11.8101634087       -0.7274503637       -8.2314414063
 H       -12.5947482013       -2.0004031481       -4.5472647463
 H       -13.9580796175       -0.9267081763       -4.9067226514
 H       -13.1604377023       -1.0100041180       -3.2865367649
 H       -12.0653511282        2.2003445154       -5.2867310608
 H       -13.0568339384        1.7125918766       -3.9650620989
 H       -13.6184962493        1.5394805940       -5.7442273967
 H        -8.9775221155       -3.1839058419        0.0433175884
 H        -7.2943514764       -3.2137327277        0.5491145009
 H        -7.9678423547       -4.0003876266       -1.0856454354
 H        -8.9039509325       -0.7139943715        0.3491832019
 H        -7.5726876405        0.2637781475       -0.1439614766
 H        -7.3724780495       -0.7865909591        1.2162723807
 H        -1.3212084393        1.7988919318       -1.6798958501
 H         0.0351560774        0.8282805106       -2.1617901365
 H        -1.2575016599        0.1282633346       -1.0517701436
 H        -1.4920256925        2.1104402171       -4.2078162389
 H        -2.1026371256        0.7819382438       -5.1641017071
 H        -0.3732713981        0.9219927084       -4.6635762148
 H        -2.2305582613       -6.4440780642       -1.5545574358
 H        -3.3524456939       -5.0554254264       -1.6404383379
 H        -1.5984223179       -4.9033891039       -1.8004318989
 H        -0.9522763564       -7.0905125426       -3.5752969162
 H        -0.5367060689       -5.5120824311       -4.0103930283
 H        -1.2893625399       -6.5681069304       -5.2561145150
 H        -5.2989555131       -8.4752338197        0.7396983839
 H        -4.3588887589       -9.9235109121        0.5549333779
 H        -5.9840468773      -10.0996592597        1.0565868110
 H        -5.8867134658      -11.2973942434       -2.5799793462
 H        -6.0223232014      -11.8023368133       -0.8648640478
 H        -4.3749735733      -11.4828687398       -1.5431618149
 H       -11.0553879450       -5.4831072536       -3.9975204485
 H       -10.6802374179       -5.7140241196       -2.2504304617
 H       -11.3326034275       -7.0764298589       -3.1677283143
 H        -9.8247406214       -7.9903695989       -5.1415337613
 H        -9.4966799928       -8.6611883074       -3.6298875546
 H        -8.2438734761       -8.2552804636       -4.6590229994
 H        -7.0042120509       -0.2112681549       -7.8404480787
 H        -6.2407543303       -1.1200129818       -6.4860654585
 H        -7.8955236257       -0.9145199422       -6.5474016954
 H        -8.8178475232       -3.3474424253       -9.1763020875
 H        -8.1909643383       -1.7444026481       -9.7430903259
 H        -9.2447827551       -1.7743355124       -8.3284475042
 H        -1.1498435305       -1.7256784727      -10.6693785741
 H        -0.4627999276       -1.3205136946      -12.1548940490
 H        -1.8490899733       -2.4938232194      -12.2434959201
 H        -2.2024966889        1.9437260234      -11.8336308914
 H        -0.7602487631        1.1312997430      -12.1754826896
 H        -1.4484679676        1.0495251460      -10.5973522101
 H        -2.9429426494        3.2759148003      -18.5364944958
 H        -4.6022708640        2.9896278468      -17.9933333353
 H        -4.0922192946        2.4629592205      -19.5873811667
 H        -4.7523693572       -0.6512948561      -17.7204335308
 H        -5.2108369377        0.3068427919      -19.1863863054
 H        -5.7115847262        0.8253802636      -17.6049245597
 H         2.8500878868       -2.4994303563      -19.7368396625
 H         1.7757744649       -1.5239052589      -20.7682233345
 H         1.2514524904       -2.0765264167      -19.1412401456
 H         3.6082142919       -1.4451594917      -17.2932989137
 H         1.9528386942       -0.8690273844      -17.1409167461
 H         3.2278923880        0.2193375956      -17.0717171792
 H         7.9739946056        1.9220266808      -22.7046472114
 H         9.1539488224        2.4853406085      -21.4611229780
 H         8.4899356417        3.6753560108      -22.6244408271
 H         8.0623290872        4.9490752475      -20.5816990926
 H         8.1137392775        3.7617230688      -19.2919315189
 H         6.6379348342        4.8687242990      -19.7093040739
 H         0.8209360570        4.8060222306      -25.8752828333
 H         0.5349528418        4.8547764690      -24.1186103093
 H         1.5554901513        3.5729969591      -24.8168425421
 H         4.4696943097        5.0777122875      -25.8401980671
 H         3.0359993920        5.3180491944      -26.9433239422
 H         3.3397014307        3.8255291284      -26.0918806954
 Na       -6.2767067621       -4.1283925577       -3.5929269676
 Na        3.3778303184        2.7953923701      -21.0270411378
