232

 C         1.1510792005        7.5576956392      -25.8477755248
 C         2.3904737227        7.0917224108      -25.0980525928
 O         3.3156716849        7.7709230183      -24.8109551118
 C         2.4000152427        5.5108812982      -24.7094589294
 C         3.0165076554        5.1094265791      -23.2108504786
 O         2.3907409911        4.3948661177      -22.4731754800
 C         4.4503419108        5.6415906127      -22.9657097117
 C         5.2697200159        5.1229081314      -21.7541678967
 C         5.7383117546        3.7109562364      -21.8766913437
 O         5.3313284036        3.0173038175      -22.7815562124
 C         6.8724412304        3.2131146539      -20.8934390240
 C         6.0498646662        2.2471578869      -19.9178661145
 O         5.3809435969        2.5912350683      -19.0271636615
 C         6.1432171473        0.7201107005      -20.3500207735
 C         5.0666900291       -0.2462310459      -19.7364722336
 C         3.6599055754       -0.0133423723      -20.3490587218
 O         3.6080008349        0.4852283764      -21.4840344539
 C         2.4916329328       -0.5305874174      -19.5288546091
 C         1.3893721902        0.4488325531      -19.4859512265
 O         1.4848053332        1.6197852766      -19.7838651514
 C         0.1046875399       -0.0338542580      -18.7050797977
 C        -1.1941076720        0.8285684701      -18.8084474081
 C        -2.4671862206        0.1370549881      -18.1901036502
 O        -2.4691564762       -1.0826471271      -18.0085517973
 C        -3.7477818294        1.0684876257      -17.7945668476
 C        -3.3301577738        1.3533944468      -16.2637380693
 O        -2.4518236748        2.1565046175      -16.0632674283
 C        -4.0075534293        0.4738290248      -15.2219116410
 C        -3.3572411528        0.7015158249      -13.8593370058
 C        -3.0065087819       -0.5110702731      -13.0524211763
 O        -3.3251942406       -1.6202886329      -13.4551523776
 C        -2.2827206107       -0.2940505835      -11.5977104462
 C        -3.4131890539       -0.2656839915      -10.5152218277
 O        -3.9588459250        0.7579816596      -10.2000289724
 C        -4.2070574775       -1.5918557775      -10.2665448441
 C        -4.9553566010       -1.5400602068       -8.8755399559
 C        -6.1348507060       -2.4840812486       -8.6839247414
 O        -6.0593381275       -3.5666189479       -9.2586156293
 C        -7.3281628808       -2.1982742834       -7.7902718094
 C        -7.2668594141       -3.2778345690       -6.6273436112
 O        -6.7637498164       -3.0598413823       -5.5340113350
 C        -7.9398373836       -4.6320164247       -7.0434698026
 C        -7.8235877158       -5.6966184777       -5.9707821129
 C        -8.8040913147       -5.4012366243       -4.7953419596
 O        -9.0392307039       -4.2598332323       -4.4842279969
 C        -9.3302191204       -6.6443277671       -3.9205696164
 C        -8.3857645528       -6.7345400432       -2.7239876834
 O        -7.3830880862       -5.9973283405       -2.7470854425
 C        -8.7648322385       -7.4338846253       -1.4365181251
 C        -7.5977952940       -8.0632085993       -0.6938698459
 C        -6.8138673898       -9.0367343253       -1.6310430537
 O        -7.2220715340       -9.1631411902       -2.7524429312
 C        -5.4845008095       -9.7429838949       -1.2715119437
 C        -4.4448460219       -8.7879294145       -2.1248801304
 O        -3.5187440995       -8.2999220377       -1.5950837522
 C        -4.4807158674       -8.7804121342       -3.6943626352
 C        -3.4806116305       -7.7655956056       -4.2955571015
 C        -3.5501992258       -6.3258892067       -3.7821871479
 O        -4.6218419575       -5.9731540199       -3.3469828553
 C        -2.3083922413       -5.4521785568       -3.6709055895
 C        -2.5586420412       -4.1245192545       -4.4917633965
 O        -3.6457484965       -3.6197446378       -4.4429943928
 C        -1.3736148178       -3.3436555254       -5.0933642161
 C        -1.6138600704       -1.8133975671       -5.1174653681
 C        -1.1931031509       -1.1624077824       -3.6187024616
 O        -0.6647204146       -1.8012139370       -2.7365101592
 C        -1.6510581219        0.2524047180       -3.2909232254
 C        -3.1310677761        0.1699693604       -2.6597079502
 O        -3.9828441896        0.8380140773       -3.1336654693
 C        -3.4556592465       -0.7565384851       -1.4167770130
 C        -4.9052577108       -0.6243695878       -0.7712852288
 C        -5.8012830290       -1.9356706362       -0.9981522535
 O        -5.3072898663       -2.9609534358       -1.3960009450
 C        -7.3962481428       -1.8298254147       -0.7818954173
 C        -7.9938103089       -1.5216994390       -2.2185976874
 O        -7.5141686213       -1.9609296827       -3.1632599125
 C        -9.2168672262       -0.5311573405       -2.2752748808
 C        -9.9208291302       -0.5500996685       -3.6298856869
 C       -11.2023225898        0.4412068501       -3.8365787784
 O       -11.3729695224        1.4527694755       -3.2537144562
 C       -12.2083373072        0.0857646147       -5.0456759557
 C       -11.6220532714       -0.3940230928       -6.3286034956
 O       -10.6334618726       -1.1142785445       -6.3919824695
 C       -12.3439389894        0.0982524871       -7.7352697901
 C       -13.0772957746       -1.0753473476       -4.5810668834
 C       -13.0602774159        1.3230270592       -5.2522201101
 C        -7.9431579039       -3.2173944686       -0.2303273296
 C        -7.7430920980       -0.6682113745        0.3286717022
 C        -0.7190349908        0.8228144782       -2.2810383548
 C        -1.6831745306        1.0893154389       -4.6579324227
 C        -2.1335681158       -5.0912692337       -2.1539238949
 C        -1.0312611822       -6.1009115509       -4.0912319405
 C        -4.9359931932       -9.7759824230        0.1624617209
 C        -5.5387408914      -11.1061428017       -1.8345050411
 C       -10.8029747875       -6.2507220089       -3.5015803465
 C        -9.3673094375       -7.9970153907       -4.6211841577
 C        -7.3535896572       -0.8085385664       -7.0568351838
 C        -8.7243916818       -2.4056195733       -8.5431757736
 C        -1.3533810948       -1.5471222768      -11.4782752740
 C        -1.6480466503        1.0724161615      -11.5389673211
 C        -3.6819839251        2.4986718206      -18.5652679811
 C        -5.1019206553        0.3028337570      -18.0409319741
 C         2.0483359024       -1.9596113048      -20.0373529556
 C         2.9082033958       -0.5472531766      -17.9987111169
 C         7.9695728142        2.4111453331      -21.6688967414
 C         7.5931892437        4.3855400475      -20.1923804476
 C         0.9418545675        4.8899574360      -24.7437079640
 C         3.3022810827        4.8226180867      -25.7230440353
 H         1.2873988060        8.5787986159      -26.0032745646
 H         0.3147373412        7.4750358801      -25.1997093260
 H         1.0027186754        7.0502582452      -26.8099113248
 H         4.2902907816        6.7322302795      -22.9629245581
 H         4.8872522945        5.5868145858      -23.8911422546
 H         4.6346445301        5.2598571624      -20.9163569208
 H         6.1186879608        5.7516577100      -21.5892873162
 H         7.0626268458        0.3008746700      -19.9852473832
 H         6.1150016469        0.6593357056      -21.3951268106
 H         5.0380535212       -0.1129011153      -18.5847352669
 H         5.3898954783       -1.2320679396      -19.7237433827
 H         0.4599667528       -0.0523689450      -17.6401543940
 H         0.0449888803       -1.1182776378      -19.0531261266
 H        -1.5361076499        0.8570369086      -19.8371659291
 H        -0.9711915813        1.8552210484      -18.3935356808
 H        -3.8964334286       -0.5601121573      -15.6811469112
 H        -5.0452188656        0.6000956412      -15.1178234294
 H        -3.9353630927        1.4834872554      -13.3760834432
 H        -2.4342179746        1.1468782873      -14.1142729481
 H        -3.7017609631       -2.5329540290      -10.5256264154
 H        -4.9933279183       -1.4091993420      -10.9384560060
 H        -5.3103474235       -0.4685354338       -8.8019785108
 H        -4.3093434289       -1.8158440940       -8.0479700261
 H        -7.4078409337       -4.9661743341       -7.9634997751
 H        -9.0192703800       -4.4690878041       -7.2608681513
 H        -6.8559251537       -5.7138087328       -5.5091874261
 H        -8.0291424401       -6.7155283678       -6.3496486284
 H        -9.5471804937       -8.1582722008       -1.6474136701
 H        -9.2482441944       -6.6716959072       -0.7551045625
 H        -7.9644337617       -8.7026755193        0.0740442820
 H        -7.0174550792       -7.2837804795       -0.3161955751
 H        -5.5375473062       -8.7380505169       -4.0314865267
 H        -4.0623716957       -9.7120607128       -4.0773079849
 H        -3.5359317094       -7.8171350699       -5.4535939507
 H        -2.4997835728       -8.1808833120       -4.2138036971
 H        -1.1373372399       -3.7832825048       -6.0360861654
 H        -0.5567681776       -3.5228278052       -4.3713220866
 H        -2.7347783090       -1.5531648089       -5.2876044423
 H        -1.1708981122       -1.2396370633       -5.8470807236
 H        -2.7073553776       -0.5335302210       -0.6134131227
 H        -3.1210903699       -1.7526367832       -1.6535421924
 H        -5.4584099769        0.2447030823       -1.0859886875
 H        -4.7324331460       -0.6623067036        0.3267569363
 H        -8.8786994836        0.5266877744       -2.1198977251
 H        -9.9704225227       -0.7470506159       -1.4598911579
 H       -10.1974352705       -1.5656517353       -3.9568194900
 H        -9.2270076830       -0.1349603155       -4.4305665561
 H       -12.2056685986        1.1879660446       -7.8736042430
 H       -13.3907323471       -0.0555723956       -7.7192003897
 H       -11.9002917702       -0.3829349891       -8.6726250742
 H       -12.3698989193       -1.8925784522       -4.1939743496
 H       -13.5964353768       -1.5394116903       -5.4031186485
 H       -13.8637899738       -0.7605567089       -3.9122279112
 H       -12.6442296513        1.9419620449       -6.0300001280
 H       -13.0885655275        1.8201012688       -4.2932401400
 H       -13.9969903764        1.0506613761       -5.6407580211
 H        -9.0387150831       -3.2783889050       -0.4227838853
 H        -7.5626565799       -3.3465752478        0.7994210350
 H        -7.5343743562       -4.0302371722       -0.8684510956
 H        -8.6996844197       -0.7774977982        0.7798487030
 H        -7.8223586628        0.2619373802       -0.0987108987
 H        -7.0518850026       -0.6219236381        1.1612478764
 H        -1.1894673787        1.7296334911       -2.0127492927
 H         0.3047983725        0.9901242086       -2.7162529965
 H        -0.6560078030        0.2305687769       -1.4203649959
 H        -1.9417293258        2.1599904209       -4.4567564676
 H        -2.4625493481        0.7207260765       -5.3270562483
 H        -0.6928024679        0.9615240847       -5.1854136742
 H        -2.1098362452       -5.9783289240       -1.5159655284
 H        -2.9801097419       -4.3521595333       -1.9539506507
 H        -1.2478959419       -4.4551904892       -1.9332894964
 H        -0.8394653947       -7.0280241562       -3.5117032123
 H        -0.1688232288       -5.3895424597       -3.9647476939
 H        -1.1047101134       -6.3680871897       -5.1603368733
 H        -4.6192170182       -8.7993508160        0.5143519727
 H        -3.9761200487      -10.2944451758        0.2265447368
 H        -5.5446896070      -10.3566378473        0.7878795882
 H        -5.8648372804      -11.0037646538       -2.8784968563
 H        -6.2533945944      -11.6937611534       -1.2930281032
 H        -4.6089229837      -11.6411995748       -1.7545766570
 H       -11.4894574226       -6.9159494176       -3.9771202303
 H       -10.8912269644       -5.2451479503       -3.8885750616
 H       -10.9262766741       -6.2484833131       -2.4529045052
 H       -10.1128888909       -8.0386325549       -5.4076333096
 H        -9.5949020088       -8.7373471491       -3.8744949013
 H        -8.4139735571       -8.3536942040       -4.9934684629
 H        -7.7720761853       -0.0762470232       -7.7117406959
 H        -6.2883113329       -0.6823079341       -6.7885631892
 H        -8.0268741855       -0.9285613026       -6.1506690052
 H        -8.5444260273       -3.1703559464       -9.2627784598
 H        -8.9458747554       -1.5083299242       -9.0248639099
 H        -9.5786774490       -2.4688041011       -7.9089389176
 H        -1.0180205353       -1.7967869228      -10.4862682941
 H        -0.5030018318       -1.2384594579      -12.0571127291
 H        -1.8212770992       -2.4711578920      -12.0426915113
 H        -2.4263006698        1.8132380139      -11.2718435506
 H        -0.9458858579        1.4005800006      -12.3064796068
 H        -0.9884787624        1.2377010805      -10.7451494427
 H        -2.8684772964        2.9662204993      -18.2390050311
 H        -4.6054352521        3.0427089615      -18.2865728931
 H        -3.7208000567        2.2357283973      -19.6085309317
 H        -5.1329911342       -0.6833775523      -17.5506092622
 H        -5.1490223400        0.1027555245      -19.0883795972
 H        -6.0052255073        0.7971500064      -17.7920188320
 H         2.9036034602       -2.6251313130      -20.0776380327
 H         1.5684175545       -1.9415333639      -21.0220625949
 H         1.3348419603       -2.3842065508      -19.2106676379
 H         3.7579829936       -1.2202979450      -17.7538049652
 H         2.1366992097       -1.0102099910      -17.4436799696
 H         3.1537415012        0.4138360072      -17.5587954773
 H         7.5617484874        1.7746198871      -22.4273964798
 H         8.5079826565        1.7113173356      -21.0082321287
 H         8.5649755484        3.0551747301      -22.1738195272
 H         8.2538952203        4.9233596720      -20.8803327563
 H         8.3403322050        3.9915442394      -19.4643665613
 H         6.9731737383        5.0746705892      -19.5919132074
 H         0.4528537317        5.1438939854      -25.5897490281
 H         0.5236124541        5.4391698695      -23.8979700441
 H         0.9923923379        3.8711238727      -24.3528904653
 H         4.0901649595        5.4489577990      -26.0501770177
 H         2.5960286021        4.6359647630      -26.6189702285
 H         3.6143072675        3.8285094330      -25.4284860419
 Na       -5.8458712251       -3.9749301505       -3.3936731807
 Na        2.9652980183        2.6406785228      -21.1022746270
