232

 C         1.1503544338        7.6730231538      -25.7054718620
 C         2.3214714076        6.9917948064      -25.0381925292
 O         3.3890600946        7.5379284908      -24.8522024588
 C         2.2045897638        5.4692733285      -24.6646841439
 C         2.9618964398        5.2214794799      -23.3011270711
 O         2.4541648035        4.5232851479      -22.4054317330
 C         4.4254698305        5.8088875837      -23.0453222539
 C         5.1502842588        5.2220306023      -21.7876266026
 C         5.6660390241        3.7872130819      -21.7611162399
 O         5.0916263392        2.9562824055      -22.4503136882
 C         6.9645666481        3.2646508324      -20.8668054429
 C         6.1907439607        2.1549217965      -20.0510122345
 O         5.3081973498        2.5921865544      -19.2569965536
 C         6.3284623158        0.6404833024      -20.3045868485
 C         5.1374831408       -0.1228035849      -19.6552295187
 C         3.7630558251       -0.0063507045      -20.2785640241
 O         3.5718182815        0.2814093402      -21.4594157191
 C         2.4756623420       -0.5698949784      -19.4528096784
 C         1.1990894179        0.3747862551      -19.3966901447
 O         1.1954496253        1.5374576884      -19.7907757131
 C        -0.1385122442       -0.1801182077      -18.8562717953
 C        -1.2489537320        0.8312806686      -18.7400694165
 C        -2.5542227581        0.1054786247      -18.2056410673
 O        -2.5051656538       -1.0782214055      -17.9130609286
 C        -3.7348934839        1.0765915627      -17.7677456518
 C        -3.3304301014        1.4103186451      -16.2819169685
 O        -2.5419685656        2.3190959003      -15.9943514126
 C        -3.9072294339        0.4130838986      -15.1997438851
 C        -3.2036049534        0.7203341071      -13.8475273144
 C        -3.0460742140       -0.5339551141      -12.9734710457
 O        -3.4849739366       -1.5994621945      -13.2970100146
 C        -2.4005315302       -0.3102697750      -11.5466488826
 C        -3.5957957546       -0.2780068755      -10.4944627028
 O        -3.7893046978        0.8075109757       -9.9602667077
 C        -4.3202758522       -1.5491603580      -10.1308330315
 C        -5.1638977265       -1.3478387990       -8.8811701383
 C        -6.2520583452       -2.3590089388       -8.7227595357
 O        -6.1925469788       -3.4268016881       -9.3118220081
 C        -7.4243631478       -2.1287771653       -7.6695746840
 C        -7.2290872557       -3.3021326711       -6.5920270936
 O        -6.4383365029       -3.1335230762       -5.6931902069
 C        -7.8811123748       -4.6514998794       -6.9245060264
 C        -7.8500937075       -5.7500305896       -5.8294027974
 C        -8.8671240913       -5.4567971444       -4.7242624812
 O        -9.0216123774       -4.3018940553       -4.4202211319
 C        -9.4082638364       -6.6435508740       -3.8992619522
 C        -8.3138983861       -6.6936954388       -2.8053577924
 O        -7.2936099947       -6.0862505516       -2.8387920981
 C        -8.6887624862       -7.4751105182       -1.4799059600
 C        -7.3710381117       -8.0281651935       -0.8687078263
 C        -6.6553707182       -8.9047740493       -1.8634644927
 O        -7.2744463098       -9.2440902561       -2.9034380272
 C        -5.2755796959       -9.7329016555       -1.5238469857
 C        -4.2009049328       -8.9004806677       -2.2727269716
 O        -3.2500369814       -8.3727592155       -1.6887355611
 C        -4.4934479349       -8.5644250516       -3.6974769444
 C        -3.2742832860       -7.8090514755       -4.3061559750
 C        -3.4074974433       -6.3929270195       -3.7705794897
 O        -4.4542803526       -5.9743519263       -3.2877583874
 C        -2.2154408648       -5.3825369634       -3.5500206744
 C        -2.4928869338       -4.0772773531       -4.3783495236
 O        -3.6324005891       -3.7525373581       -4.6085387751
 C        -1.4107767096       -3.2975530264       -5.1586432353
 C        -1.8016111626       -1.7920172548       -5.1434429592
 C        -1.3257599595       -1.2889164281       -3.7461604407
 O        -0.5330216267       -1.9020635613       -3.0377875001
 C        -1.8222019059        0.2500224332       -3.2563726815
 C        -3.1963163901        0.0557841293       -2.5985677875
 O        -4.1803068069        0.7031078310       -2.9668004626
 C        -3.3232199409       -0.8594642464       -1.3955765014
 C        -4.6640830371       -0.7009189496       -0.7252334404
 C        -5.6464691881       -1.8479483794       -1.1046438268
 O        -5.2144193035       -2.9364349681       -1.4671464865
 C        -7.1578857681       -1.6114690058       -0.7872981615
 C        -7.9718522106       -1.3276750152       -2.1761676501
 O        -7.5580033337       -1.9705400751       -3.1855706146
 C        -9.2796481955       -0.5957101372       -2.3065806779
 C        -9.8742951438       -0.6228675541       -3.7672018295
 C       -11.1164829864        0.3250213687       -3.9480743848
 O       -11.2808528069        1.3414042635       -3.2092202756
 C       -12.2320510237        0.1428355305       -5.0707418645
 C       -11.7117028907       -0.3327756305       -6.4967944244
 O       -10.7776476996       -1.1268446012       -6.4370052099
 C       -12.2939835259        0.2222256557       -7.7189691531
 C       -13.0835252016       -1.1053281509       -4.6805694102
 C       -13.2666678401        1.3154333456       -5.1323481753
 C        -7.7102903632       -3.0146089200       -0.3215010104
 C        -7.4743729978       -0.5881153500        0.3438956361
 C        -0.7654824417        0.8893430076       -2.3684132964
 C        -1.9894764571        1.1339906026       -4.4125014569
 C        -2.1181241426       -5.0111198117       -2.0981975122
 C        -0.9073816126       -6.0552480435       -4.0385607103
 C        -5.1158322315       -9.6058276760        0.0006010762
 C        -5.3225910553      -11.1953306208       -2.0339235326
 C       -10.8349882818       -6.2395482295       -3.3429070405
 C        -9.4622976502       -8.0269605224       -4.6345976175
 C        -7.2588840209       -0.6949525867       -6.9941827448
 C        -8.7068484163       -2.2663079660       -8.5879115892
 C        -1.3928384513       -1.4858976516      -11.1803455555
 C        -1.6548412841        0.9718154550      -11.5326615816
 C        -3.8861298561        2.3824354174      -18.6064720567
 C        -5.0401685186        0.2680254066      -17.7677814597
 C         2.2209481373       -1.9165800964      -20.2307974198
 C         2.8359937513       -0.9941012458      -18.0032949209
 C         7.9960929340        2.6094473991      -21.8118874165
 C         7.5676560984        4.2685732376      -19.8375892332
 C         0.8307167723        4.8082159106      -24.5612892237
 C         3.0418004547        4.7392730833      -25.7544023012
 H         1.1852310935        8.8125429241      -25.5874169463
 H         0.1656395962        7.3499052604      -25.3175436385
 H         1.3058778545        7.4988786677      -26.7794049815
 H         4.3639331198        6.8862209490      -22.9021621093
 H         4.9441142197        5.7859878014      -24.0575598259
 H         4.3933288887        5.3625567898      -20.9236936242
 H         5.9047203371        6.0252055525      -21.5343149913
 H         7.2734254739        0.2552969425      -19.8490857139
 H         6.3052880642        0.4997653253      -21.4661671810
 H         5.1330321924       -0.0530974940      -18.5869152350
 H         5.2901021979       -1.2698399546      -19.7517255210
 H         0.1366655192       -0.6227653438      -17.9216801927
 H        -0.3018476249       -0.9559344295      -19.5491767221
 H        -1.3668858169        1.4456404198      -19.6724574173
 H        -1.0060181316        1.5060204891      -17.9212287928
 H        -3.7866282576       -0.6049239569      -15.4768527621
 H        -5.0373389365        0.5326682761      -15.1310241661
 H        -3.7425613362        1.4965712688      -13.2692608491
 H        -2.2307737604        1.2511284245      -14.1547598487
 H        -3.6913196410       -2.3979161715       -9.9798180104
 H        -4.9976309336       -1.8203942076      -11.0463096909
 H        -5.7601099653       -0.4669504216       -8.9868946358
 H        -4.5598935572       -1.3505944258       -7.9940951713
 H        -7.3465849329       -5.0129111790       -7.7583154505
 H        -8.8994251706       -4.4703395275       -7.1203639411
 H        -6.9223718747       -5.6450670215       -5.1754372922
 H        -7.8875779065       -6.7593762537       -6.2371371720
 H        -9.4121489123       -8.2528059336       -1.6692035892
 H        -9.1265111463       -6.8192288828       -0.7981022903
 H        -7.6052726369       -8.7421469041       -0.0323860067
 H        -6.6671274870       -7.2028936924       -0.5365834597
 H        -5.4624640395       -8.0714670759       -3.6617977347
 H        -4.5966377464       -9.5184298314       -4.2649648984
 H        -3.1325228001       -7.8983866314       -5.3589178424
 H        -2.2752300803       -8.2773108164       -4.0141276924
 H        -1.3946072498       -3.5507086996       -6.2378588173
 H        -0.4649162926       -3.3466303326       -4.6012076075
 H        -2.7545232757       -1.4663284418       -5.3573488051
 H        -1.1452078356       -1.2199478601       -5.8937580562
 H        -2.4403177807       -0.7337506956       -0.8228084353
 H        -3.0797611117       -1.8622235205       -1.7891998010
 H        -5.1736659535        0.1887097918       -1.1748255051
 H        -4.6458346265       -0.6069662747        0.3549233423
 H        -9.0565884028        0.4692278856       -2.0567844540
 H        -9.9265584834       -1.0449710696       -1.5483240356
 H       -10.1294798265       -1.6348772171       -4.1674085536
 H        -9.0286265655       -0.2230912592       -4.3329004221
 H       -11.6858640194        1.0194896244       -8.0639845008
 H       -13.3744503054        0.6047119042       -7.6574686070
 H       -12.1150039542       -0.4680269817       -8.4526664499
 H       -12.5785416316       -1.9669622796       -4.6633497255
 H       -13.8333807483       -1.2461893635       -5.4668771372
 H       -13.7139377308       -0.8700578757       -3.8319658556
 H       -12.7720171522        2.1464864620       -5.6116256779
 H       -13.5989710102        1.5725146035       -4.1180175966
 H       -14.1344181138        1.0496394623       -5.8115622712
 H        -8.7685263877       -2.9335822400       -0.0132488965
 H        -7.0586285689       -3.4234546092        0.4456694713
 H        -7.5966064313       -3.7205694395       -1.1911776971
 H        -8.5855040965       -0.4201807775        0.4080740653
 H        -7.1063727551        0.4430706134        0.1301303528
 H        -7.1301369282       -0.8551498316        1.3213088797
 H        -1.1565825372        1.7488498753       -1.7160885916
 H         0.0274876844        1.0890045059       -3.0116445815
 H        -0.3261593415        0.0597380495       -1.7459012128
 H        -1.8628256100        2.0757022469       -4.0136232102
 H        -2.9481329427        1.1357243005       -4.9036379030
 H        -1.3229736496        0.9542508213       -5.2358876873
 H        -1.9731771024       -5.9580865178       -1.5745237428
 H        -2.8457732671       -4.4006875112       -1.7447654475
 H        -1.2560877800       -4.4284287390       -1.9801504702
 H        -0.6066721637       -6.8874688872       -3.4273860937
 H        -0.1438727090       -5.3460483996       -3.9113007914
 H        -0.9733753574       -6.3423785405       -5.0905992246
 H        -5.1186888732       -8.5871242176        0.3352382165
 H        -4.1110252311       -9.8467503276        0.2593724560
 H        -5.7413179623      -10.3562707351        0.5286530065
 H        -5.7430681704      -11.2719385561       -3.0414956738
 H        -5.7985229669      -11.9036761771       -1.2977935479
 H        -4.2604085809      -11.5597646904       -2.0823616451
 H       -11.5453719001       -6.9634155856       -3.7562527229
 H       -11.0586717234       -5.2351312654       -3.6739069623
 H       -10.8550490578       -6.3838779738       -2.2385228139
 H        -9.7431588052       -7.8028641456       -5.6471772469
 H       -10.1977498375       -8.7363496452       -4.1837097372
 H        -8.5051739180       -8.4728134208       -4.6252456824
 H        -7.0985188679        0.0516083764       -7.7511939639
 H        -6.4526428461       -0.7356038931       -6.3511365101
 H        -8.1807277823       -0.5817572377       -6.5217521998
 H        -8.6999789861       -3.3088751433       -8.9265278802
 H        -8.7594756495       -1.5226637891       -9.4607269720
 H        -9.5604475964       -1.9452165294       -7.9562646377
 H        -1.6446693236       -1.5641118771      -10.0705694509
 H        -0.3205852343       -1.2524708248      -11.3173982638
 H        -1.6852798167       -2.4158560463      -11.5986354010
 H        -2.2481086668        1.8130788329      -11.8604880781
 H        -0.7024278586        0.9348054372      -11.9633858820
 H        -1.2640671919        1.3316785706      -10.5377854520
 H        -2.8705229728        2.8810766726      -18.5137713631
 H        -4.6458328965        3.0189732547      -18.2343770322
 H        -4.1976789444        1.9602165956      -19.5618760291
 H        -4.8554812800       -0.7406678310      -17.3044793178
 H        -5.4172465828        0.0084069315      -18.8166085359
 H        -5.9260114327        0.7468689955      -17.2134394995
 H         3.1609140040       -2.5069448430      -20.1189845313
 H         2.0700435375       -1.7140328358      -21.2917298519
 H         1.4681896977       -2.4698976703      -19.8419371995
 H         3.6391384628       -1.6801898154      -17.9555960273
 H         2.0562516599       -1.5459563765      -17.4314490976
 H         3.1575514631       -0.1412624811      -17.4228807309
 H         7.5577771829        1.8347908395      -22.5062623384
 H         8.7810429629        2.0766073293      -21.2542818500
 H         8.4114245506        3.4283721862      -22.5329797977
 H         8.2944742111        4.9199709919      -20.3962917071
 H         8.1439296540        3.9697672006      -18.9594321590
 H         6.7277511673        4.8879466314      -19.4083950437
 H         0.2832939607        5.1694072361      -25.5034044620
 H         0.2600406653        5.0262244039      -23.6897510725
 H         1.0605936463        3.7628542129      -24.5945843164
 H         4.0645734825        5.0135607305      -25.5042966834
 H         2.9456220306        5.0363029377      -26.7491361518
 H         2.8985174542        3.6696485216      -25.6093155147
 Na       -5.9019590733       -3.9944412668       -3.6212757657
 Na        2.9177775370        2.7145420839      -21.2044236712
