232

 C         1.1332371980        7.6113923144      -25.4476892688
 C         2.3636078769        6.9101148983      -24.8927347049
 O         3.4106485543        7.5440538986      -24.8806525570
 C         2.3649749966        5.3743544813      -24.5751815701
 C         3.0552164748        5.0638608759      -23.2057575438
 O         2.4258068015        4.5863285403      -22.2545465522
 C         4.4868003256        5.5857917782      -23.0604972086
 C         5.1376110775        5.3235389476      -21.6954129870
 C         5.5324287522        3.8535089943      -21.7381114886
 O         4.8170205519        3.0567910821      -22.3488822083
 C         6.7123818235        3.2338467168      -20.9220909757
 C         5.8518076893        2.1131209989      -20.1969532807
 O         5.0197290968        2.4924064813      -19.4502224554
 C         6.1142315642        0.6606844827      -20.4167135541
 C         5.2579766420       -0.0582872472      -19.4746508481
 C         3.7398856411       -0.0314136037      -20.0208636397
 O         3.6038063072        0.5969625153      -21.0298772460
 C         2.5119934664       -0.7908775730      -19.4436864587
 C         1.2491867548        0.2636505129      -19.4714950030
 O         1.3232981205        1.3020118628      -20.0400392424
 C        -0.1832446735       -0.2820063655      -19.1121503407
 C        -1.1851614470        0.7849577283      -18.7439418383
 C        -2.5145184333        0.0966493182      -18.2284561345
 O        -2.6493335477       -1.0549146357      -17.9762742030
 C        -3.7283634845        1.0133004911      -17.6948104539
 C        -3.4044652358        1.4118019216      -16.1777292523
 O        -2.7391603489        2.4240364079      -16.0826277835
 C        -3.6786113513        0.3999910149      -15.0627211668
 C        -3.0792250850        0.7213765253      -13.7325962419
 C        -3.0090793910       -0.4330438723      -12.7644726315
 O        -3.5257858826       -1.5384414462      -13.0021886574
 C        -2.4146741164       -0.2864326672      -11.4139445438
 C        -3.6013844891       -0.1247832234      -10.3607600801
 O        -3.7204168778        0.9059156036       -9.7269415147
 C        -4.2919080595       -1.4821772088      -10.0544790992
 C        -5.4377523570       -1.0998876755       -9.1109964463
 C        -6.2529712741       -2.3767549894       -8.7856434922
 O        -6.2048151517       -3.3769409069       -9.4278066922
 C        -7.4267529192       -2.0956603764       -7.6738211574
 C        -7.1027806877       -3.3285886601       -6.7596234165
 O        -6.2851147497       -3.1958675304       -5.8419055909
 C        -7.8659180502       -4.6326813717       -7.0635125362
 C        -7.8669971669       -5.6227007523       -5.8710034103
 C        -8.8927902620       -5.3643358085       -4.7625360213
 O        -9.3361737304       -4.2252336406       -4.5793824145
 C        -9.3648073437       -6.4916796768       -3.7645588199
 C        -8.2845891963       -6.6759788308       -2.6018475659
 O        -7.1908040210       -6.0376206626       -2.7394663839
 C        -8.6223092893       -7.6224816406       -1.4489571448
 C        -7.2931662358       -8.1498757021       -0.9763303152
 C        -6.6299117469       -9.1227219426       -2.0237424509
 O        -7.1449695313       -9.4510991647       -3.0349405294
 C        -5.2390737076       -9.6514438654       -1.5731519844
 C        -4.1438325408       -8.8496674638       -2.3229560271
 O        -3.1268442822       -8.5989895779       -1.7287909087
 C        -4.1312153626       -8.7229375065       -3.9148070151
 C        -3.1363242109       -7.6652518913       -4.3292083482
 C        -3.3097753023       -6.2904491256       -3.7046515987
 O        -4.4170104635       -5.9142633089       -3.3631779304
 C        -2.0553169222       -5.3635596029       -3.5943337776
 C        -2.5444905308       -4.0933461163       -4.4184528994
 O        -3.7132311589       -3.7458507357       -4.5779861381
 C        -1.5347026080       -3.3063481759       -5.2408210521
 C        -1.8243247741       -1.7988100721       -5.2229509030
 C        -1.3263101481       -1.1574893281       -3.8163309378
 O        -0.6060410088       -1.7869623586       -3.0753382444
 C        -1.8735815052        0.1991722003       -3.4076059353
 C        -3.2410687960       -0.0236443106       -2.5699811658
 O        -4.2647962105        0.5160889196       -2.8798478888
 C        -3.1577473722       -0.9481875698       -1.1928479120
 C        -4.5083693011       -0.8357841792       -0.5455743530
 C        -5.6125223038       -1.7696189651       -1.1905921036
 O        -5.2498485228       -2.6977738548       -1.9023310307
 C        -7.1443931096       -1.5884460954       -0.9282321343
 C        -7.8467548880       -1.4755598137       -2.3801704086
 O        -7.5067617620       -2.0352351797       -3.3799460603
 C        -9.1937236459       -0.6376924270       -2.5128944512
 C        -9.9988831704       -0.8368164748       -3.8156089254
 C       -11.0788904019        0.2613464492       -3.8345085853
 O       -11.1081481279        1.1766855035       -3.1115047601
 C       -12.2370513499        0.0331016276       -4.8620527684
 C       -11.6970247654       -0.3154102072       -6.3758983499
 O       -10.7573229865       -1.0564003127       -6.5753561638
 C       -12.1579939347        0.4100042505       -7.6562226997
 C       -13.0578574353       -1.2549413325       -4.4236181219
 C       -13.0625494885        1.3584178317       -4.8824494417
 C        -7.7379235976       -2.9078651827       -0.3879545971
 C        -7.4422760694       -0.3929688345       -0.0381378671
 C        -0.8505430040        0.7460186647       -2.2769302425
 C        -2.2115104176        1.2296752147       -4.5488048063
 C        -1.9579973918       -4.7007078102       -2.1649267206
 C        -0.7656341741       -5.9481253390       -4.0215256760
 C        -4.9673577629       -9.6640380847       -0.0661853773
 C        -5.0579285180      -11.1538801164       -2.2072749739
 C       -10.7717362890       -6.1673242841       -3.1756123320
 C        -9.4912837697       -7.7743821367       -4.6104536073
 C        -7.4228423198       -0.7816449201       -6.7733042646
 C        -8.7262537997       -2.1126608967       -8.4960252678
 C        -1.5465729134       -1.5627663356      -11.0922299520
 C        -1.4360245555        0.9109248921      -11.2387715551
 C        -3.9514836356        2.2505045965      -18.6319064464
 C        -4.9836879343        0.1762348440      -17.8234574272
 C         2.0641449352       -1.8922632940      -20.4422184156
 C         2.7888145557       -1.2717748308      -18.0321868082
 C         7.9067806734        3.0036754092      -21.9350867137
 C         7.2256438261        4.2706563705      -19.8723238698
 C         0.8418456375        4.9652577794      -24.3923130403
 C         2.9222993999        4.5556439183      -25.8755081135
 H         1.0898326281        8.6515881705      -25.2403453656
 H         0.2789903768        7.2100529206      -24.9073828067
 H         1.1543272827        7.4896355742      -26.5543054388
 H         4.4099078627        6.7100491684      -23.2575810327
 H         5.1433732408        5.3371137255      -23.8865781304
 H         4.5456164983        5.4163531934      -20.8333909682
 H         5.8626531798        6.1074455184      -21.6192249984
 H         7.1827057761        0.5859072596      -20.2322866228
 H         5.8762784677        0.3607566857      -21.3644570147
 H         5.3596955521        0.4813416709      -18.4955092124
 H         5.5539035771       -1.0743455781      -19.2064336667
 H         0.0839098829       -1.0073288391      -18.3142455701
 H        -0.5246425540       -0.8284563665      -20.0294810263
 H        -1.3123469546        1.5405583332      -19.4971441825
 H        -0.9543132736        1.3840574822      -17.8455234127
 H        -3.3139579326       -0.6376899609      -15.3466375799
 H        -4.7427334056        0.3123676091      -15.0133915782
 H        -3.6390047328        1.5046832845      -13.1896476379
 H        -2.1483737308        1.2108324920      -13.8860328877
 H        -3.5469767374       -2.1978308075       -9.5113796322
 H        -4.5999460980       -2.0208877136      -10.8857413146
 H        -6.2121321416       -0.4601912713       -9.6426696568
 H        -5.0324644127       -0.6528352008       -8.1507747043
 H        -7.2036742768       -5.2094787725       -7.8065870381
 H        -8.9296560260       -4.4005131433       -7.4112943122
 H        -6.8993384076       -5.6910816964       -5.4661771368
 H        -8.1465248251       -6.6098443072       -6.2517447596
 H        -9.4586786478       -8.3418364799       -1.6608837079
 H        -8.9697238662       -6.8953325508       -0.5941211836
 H        -7.3624472782       -8.5301118112        0.0457941214
 H        -6.6264475896       -7.2927486851       -0.9724435720
 H        -5.0782514417       -8.3757089061       -4.3153018360
 H        -3.9201269715       -9.6692758905       -4.3742765470
 H        -3.2256328776       -7.5872414065       -5.4155467404
 H        -2.1327689931       -7.9656278564       -4.3347646028
 H        -1.8128477836       -3.5137079092       -6.2780747455
 H        -0.5042322388       -3.5036830561       -4.9703343949
 H        -2.9713604224       -1.5401297704       -5.2800253816
 H        -1.3994428697       -1.3204511822       -6.0876470196
 H        -2.2459541696       -0.6494865488       -0.5889516310
 H        -2.8859576592       -1.9782602327       -1.4431074551
 H        -4.9214574439        0.1553920409       -0.3977468864
 H        -4.4352119697       -1.3145146788        0.4711757667
 H        -8.8157339142        0.3419266978       -2.4428772791
 H        -9.8352316728       -0.9101256918       -1.6797462407
 H       -10.2900017981       -1.8261318198       -3.9562740691
 H        -9.2345371141       -0.5644377048       -4.5435285029
 H       -11.3665979235        1.2043254563       -7.8468165135
 H       -13.0562259961        0.9212969449       -7.5679416539
 H       -12.0072666251       -0.1985020389       -8.6206268356
 H       -12.4777897697       -2.1952119959       -4.8145740173
 H       -14.0857425010       -1.3697548129       -4.7381256030
 H       -13.0975883915       -1.2044905076       -3.3317624647
 H       -12.4195030049        2.2876056673       -4.9279411625
 H       -13.5772904706        1.3382532573       -3.9009539776
 H       -13.8410195427        1.3062966843       -5.6127581654
 H        -8.7442296038       -2.6845707512       -0.0887462330
 H        -7.2779277223       -3.1862258876        0.5842152690
 H        -7.5156033098       -3.7276944652       -1.0192370408
 H        -8.4615446115       -0.0810160599        0.0729834391
 H        -6.8191241870        0.4831105283       -0.3063066027
 H        -7.0763593222       -0.6876963383        1.0022156294
 H        -1.3313286667        1.5937555672       -1.9223104148
 H         0.1143121582        1.0170057148       -2.8164374459
 H        -0.5209175316        0.0635580385       -1.5372989923
 H        -2.8290005884        2.1388862705       -4.2030755875
 H        -2.6788783950        0.7408311013       -5.4151444770
 H        -1.3043541282        1.5515422546       -5.1174267935
 H        -1.4181828321       -5.3199579844       -1.4821664788
 H        -2.9595585535       -4.3593045745       -1.7430007008
 H        -1.5098302297       -3.6635040010       -2.3269680276
 H        -0.5925021950       -6.8262706598       -3.4119100169
 H         0.0688467007       -5.2884925587       -3.6807480684
 H        -0.6751761031       -6.1978191763       -5.0505098604
 H        -4.6431491408       -8.6530640782        0.3008380919
 H        -4.0661816409      -10.3326173858        0.1161352195
 H        -5.8067141525      -10.0443535838        0.5120147302
 H        -5.3654825069      -11.3516737763       -3.2353074381
 H        -5.5637346183      -11.8356391856       -1.5592312883
 H        -4.0202491617      -11.3861788002       -2.1245664352
 H       -11.4769023452       -6.1401377875       -4.0260799920
 H       -10.6985205595       -5.1295519045       -2.7816722340
 H       -11.1041694110       -6.9364072303       -2.4994921965
 H       -10.2626156513       -7.6063179681       -5.4171390279
 H        -9.8374789710       -8.6082700501       -4.0061764568
 H        -8.4402987209       -8.0353764322       -5.0640087730
 H        -7.0295781315        0.1243430250       -7.3189197195
 H        -6.6829855351       -0.9988267969       -5.9163231353
 H        -8.4845536105       -0.8260309128       -6.4565679017
 H        -8.7256189759       -2.9737365112       -9.1971782134
 H        -8.8279330028       -1.2012986052       -9.0819589387
 H        -9.5533529139       -2.0934623331       -7.7501785607
 H        -1.1087871253       -1.5599293892      -10.1197895761
 H        -0.8670183345       -1.4656764099      -11.9692696672
 H        -2.1422449345       -2.4644506276      -11.1708786191
 H        -1.9145425483        1.8624328252      -11.1321824839
 H        -0.5945305113        1.1021332493      -11.9948174806
 H        -0.8477965714        0.7505260497      -10.3749111741
 H        -3.1983757076        2.9587513388      -18.3105250299
 H        -4.9517082462        2.6037862224      -18.3128391354
 H        -4.0390768667        1.9079965810      -19.6460790687
 H        -4.9215415567       -0.8960542761      -17.6577520369
 H        -5.3858464070        0.2751010018      -18.8280577539
 H        -5.7272864327        0.5421609298      -17.1320578436
 H         2.8089618388       -2.5915534244      -20.6774541751
 H         1.7932943291       -1.2744048613      -21.2925844806
 H         1.1104567086       -2.4029676274      -20.0919476480
 H         3.6459370677       -1.9846220250      -17.9302585485
 H         1.9999438231       -1.7986679070      -17.5624251122
 H         3.0017796998       -0.3905971166      -17.4083203526
 H         7.6353397165        2.5040673073      -22.8246662049
 H         8.7306666991        2.4549730017      -21.4787322046
 H         8.2549639337        3.9600863076      -22.1991078660
 H         7.4922404259        5.2438483035      -20.2389642913
 H         8.1689568989        3.8691852210      -19.4971729438
 H         6.6566292943        4.2584806676      -19.0064728311
 H         0.3034403532        4.8386063188      -25.3188576106
 H         0.3925446386        5.7524460628      -23.7212290541
 H         0.8795524503        4.0106339874      -23.8005514997
 H         3.9512124820        4.8070260067      -26.2619993151
 H         2.3065800228        4.9051932296      -26.7420410798
 H         2.7602666778        3.5148055636      -25.6439985962
 Na       -6.1864848044       -4.0365209794       -3.5954455100
 Na        2.9640305144        2.5621174385      -21.1459213382
