232

 C         0.9005263685        7.8170759779      -25.3217818388
 C         2.1301227209        6.9386125012      -25.0913495811
 O         3.2253520843        7.4839241978      -25.0986297011
 C         2.1373876058        5.4737893332      -24.4819698660
 C         2.9931480690        5.2534640822      -23.1097775018
 O         2.4906973698        4.6921759738      -22.2133112476
 C         4.4421371826        5.8313499264      -23.1035255959
 C         5.3575865241        5.3575454475      -21.9650244313
 C         5.4937371567        3.8587514624      -21.8688878218
 O         4.9590158609        3.1686311806      -22.7213665025
 C         6.3808440993        3.1856119187      -20.8371384905
 C         5.5320767338        2.0919882131      -19.9518973661
 O         4.5463285496        2.3794733493      -19.3422005203
 C         6.1062711731        0.7449429156      -19.8252350055
 C         5.0337345619       -0.3261457960      -19.5592494298
 C         3.6834913668       -0.1698227476      -20.2359469583
 O         3.5453910860        0.3700941858      -21.3279876685
 C         2.4365622440       -0.9170208593      -19.5654237144
 C         1.1924590564        0.1314034022      -19.5942077849
 O         1.2634748084        1.2880191570      -19.9126468257
 C        -0.1072947317       -0.4490068800      -19.0426337536
 C        -1.0824050245        0.6317972892      -18.7063509565
 C        -2.4375882830        0.0212475907      -18.1123882862
 O        -2.5520004339       -1.1983510774      -18.1859673397
 C        -3.5947539985        0.8860613262      -17.6553803756
 C        -3.2201604505        1.3009076920      -16.1019093104
 O        -3.0028875616        2.4492289259      -15.8553023621
 C        -3.4248714029        0.3184671772      -14.9656586359
 C        -2.7366547589        0.8399274499      -13.6973514660
 C        -2.8749328446       -0.2495730445      -12.6725608255
 O        -3.7011637274       -1.1678966612      -12.7898273537
 C        -2.2212885000       -0.2284526236      -11.3579484740
 C        -3.3646392566        0.0193582488      -10.2902776811
 O        -3.4188560686        1.0712569517       -9.6918555315
 C        -4.2634957562       -1.2407318596       -9.9104079229
 C        -5.6484769788       -0.8302931841       -9.3511712526
 C        -6.3891570843       -2.1650240362       -8.8765299535
 O        -6.0422070497       -3.2493436172       -9.2904732391
 C        -7.4930155599       -2.0831576630       -7.7310622019
 C        -7.3350148935       -3.3714272036       -6.8276473654
 O        -6.5213724562       -3.3085766118       -5.9053968008
 C        -8.0088713779       -4.7905596225       -7.1904943222
 C        -7.9264999537       -5.7303282688       -6.0012000234
 C        -8.9548007115       -5.3584460396       -4.8535504573
 O        -9.6179410349       -4.3137413125       -4.8633974347
 C        -9.3711551710       -6.4076292541       -3.7083297756
 C        -8.3328538215       -6.5806502387       -2.5373432297
 O        -7.3792009901       -5.7902109860       -2.4414392499
 C        -8.3206517829       -7.7272244647       -1.5905266421
 C        -7.0770464771       -8.4334325433       -1.0575048077
 C        -6.3469968739       -9.2599450103       -2.0873393344
 O        -6.7819067717       -9.5331184078       -3.1779892356
 C        -5.0044641720       -9.8529583667       -1.7334328895
 C        -3.8465965903       -8.9345988239       -2.4105376909
 O        -2.9887685220       -8.4808264603       -1.7234456829
 C        -3.9330099397       -8.7462754932       -3.9740246671
 C        -2.9094563014       -7.6113275176       -4.3062791620
 C        -3.3072491436       -6.2472531620       -3.8504310268
 O        -4.3560971522       -6.1309730362       -3.1775947194
 C        -2.2590036763       -5.0977680447       -3.7434197144
 C        -2.6755909358       -3.8981695164       -4.6431008674
 O        -3.8070421457       -3.4647835471       -4.6007588735
 C        -1.6614616208       -3.1214271358       -5.4431490614
 C        -1.7991769949       -1.6144300554       -5.2890342012
 C        -1.4282758665       -1.1024662359       -3.8425314357
 O        -0.7756608940       -1.7756547305       -3.1001676391
 C        -2.0546817830        0.2240172329       -3.2949323640
 C        -3.2892414560       -0.1139668357       -2.5136529177
 O        -4.3807613067        0.1841980014       -2.8734139961
 C        -3.1013812249       -0.8792717705       -1.1587585681
 C        -4.4371826321       -1.0917684990       -0.4853705327
 C        -5.4997530992       -1.8399509312       -1.4025494818
 O        -4.9995610595       -2.5263922896       -2.3024880614
 C        -7.0827152609       -1.5971978015       -1.2254018325
 C        -7.7592021453       -1.5838678576       -2.6317395233
 O        -7.4949726515       -2.3207642270       -3.5237407154
 C        -8.9409118640       -0.6225494658       -2.7320797133
 C       -10.1224039174       -1.0590772322       -3.6715581413
 C       -11.0836088674        0.1823459666       -3.6743438635
 O       -10.8081895556        1.1367312354       -3.0718854740
 C       -12.2981815063        0.0321821897       -4.7754285626
 C       -11.7010108974       -0.1311401682       -6.1629632507
 O       -10.8859375199       -1.0401817818       -6.3780376178
 C       -12.1073749818        0.8226690695       -7.2559606554
 C       -13.1154708664       -1.3374692583       -4.4630372773
 C       -13.1590573269        1.2644392366       -4.4817388022
 C        -7.4679170967       -2.8397525021       -0.4694549877
 C        -7.2041302037       -0.1712606290       -0.4007137206
 C        -0.9257321880        0.8613956029       -2.4006188264
 C        -2.4433785017        1.2018284701       -4.4874306649
 C        -2.1458974577       -4.6580090662       -2.1878095012
 C        -0.8618059585       -5.6189216625       -4.0553075167
 C        -4.6360030322      -10.0187942774       -0.1828280304
 C        -5.0706497687      -11.3156299279       -2.2518383984
 C       -10.5987137179       -5.8310625022       -2.9446224889
 C        -9.6903988713       -7.6721151661       -4.4855544376
 C        -7.4462307326       -0.8336939635       -6.7595373106
 C        -8.8826538962       -2.2286398535       -8.3909946215
 C        -1.4581898754       -1.5382232952      -11.0829963632
 C        -1.1480644627        0.8726587089      -11.1776953648
 C        -3.7046865103        2.1596361369      -18.6052641510
 C        -4.9201714187        0.0253845444      -17.7531788920
 C         2.1986349446       -2.0646774710      -20.5338137007
 C         2.5641347340       -1.4359226504      -18.1474356973
 C         7.6244396854        2.5632392354      -21.5646848853
 C         6.8654852026        4.2570546160      -19.7736906163
 C         0.6576451077        4.9291785415      -24.1939446281
 C         2.8919985002        4.5700054281      -25.5762621854
 H         1.2587578195        8.6376400209      -25.9046924196
 H         0.4554168155        8.2429107452      -24.4103798247
 H         0.2013838275        7.3041955881      -26.0623487182
 H         4.2347641758        6.9848454603      -23.0023649065
 H         4.7933725487        5.7134830996      -24.1441175548
 H         4.7202805345        5.7863461887      -21.1047363711
 H         6.2942885703        5.9540602344      -21.8860419358
 H         6.7812969478        0.6990917942      -18.9495815405
 H         6.7094401576        0.4376115350      -20.7433021644
 H         4.8580039955       -0.3253467901      -18.3584283931
 H         5.5463095833       -1.2527657878      -19.8304448935
 H         0.1095845882       -1.0731886453      -18.2650868360
 H        -0.4381344028       -1.0394217398      -19.8883213711
 H        -1.5159423369        1.1715929063      -19.4735445852
 H        -0.6195190394        1.4564488401      -18.0945062470
 H        -3.0919081928       -0.7079916639      -15.2155781159
 H        -4.4592581325        0.2353724855      -14.6955547443
 H        -3.2626977457        1.7641453582      -13.3863962229
 H        -1.6733016277        1.2386778865      -13.7163393788
 H        -3.6367993776       -1.7931431017       -9.1870584297
 H        -4.3790786303       -1.9940664055      -10.7308159419
 H        -6.2069030469       -0.2895952053      -10.1359439737
 H        -5.5043990502       -0.1894801200       -8.5226936338
 H        -7.3875423388       -5.1669377140       -7.9660637888
 H        -9.0420629076       -4.6676179373       -7.5319057473
 H        -6.8963435580       -5.7614631664       -5.5433316381
 H        -8.2044791405       -6.7509667690       -6.2734583841
 H        -8.9587911372       -8.4715135841       -1.9952503438
 H        -8.7760027026       -7.3859624825       -0.6864184717
 H        -7.3821877952       -9.0625097191       -0.1609523810
 H        -6.3612035151       -7.6982669525       -0.6156618456
 H        -4.9720583425       -8.4044872076       -4.2043689805
 H        -3.7850053975       -9.7295572270       -4.4374125537
 H        -2.6497520500       -7.4800309482       -5.3805927391
 H        -1.9547934897       -7.8028123593       -3.9518490041
 H        -1.8547762579       -3.4073491626       -6.4695557638
 H        -0.6103564040       -3.4534576352       -5.1221981236
 H        -2.9655989074       -1.3894592883       -5.2951912369
 H        -1.2750197495       -0.9824711524       -5.9547417177
 H        -2.4254157966       -0.3577126237       -0.4602832745
 H        -2.5776180093       -1.7770616714       -1.4139965146
 H        -4.8672739848       -0.2833172455        0.1104250917
 H        -4.1838853079       -1.8075267930        0.2885654830
 H        -8.4792996270        0.2568355867       -3.2731424655
 H        -9.3095172452       -0.3524268879       -1.7828209604
 H       -10.6454922656       -1.9800293314       -3.3071173791
 H        -9.7595797084       -1.2104439601       -4.6658453209
 H       -11.9749791175        1.8632428789       -7.0895541024
 H       -13.0756066238        0.7145350683       -7.5183476514
 H       -11.3475738091        0.6129307850       -8.0514420436
 H       -12.4396020555       -2.2579476127       -4.4480132568
 H       -13.7936082699       -1.4940873909       -5.2384148093
 H       -13.6213519317       -1.3134365266       -3.5494047612
 H       -12.8427579573        2.1385369471       -5.0583486957
 H       -13.1746216324        1.6092287518       -3.4372330618
 H       -14.1870370650        0.9763707586       -4.6172951026
 H        -8.5439096618       -2.8627092912       -0.3761410639
 H        -7.2240268670       -2.8467390107        0.5725768018
 H        -6.9226261317       -3.6858120462       -0.9167680073
 H        -8.1972712220        0.0644337815       -0.0359767142
 H        -6.7973616445        0.6461376281       -0.9474804273
 H        -6.6094667099       -0.3007053067        0.5501061842
 H        -1.2599690043        1.8471241794       -2.0824105112
 H         0.0199419770        1.1326920070       -3.0329676150
 H        -0.7139218684        0.1092332461       -1.6422794931
 H        -3.1001621496        1.9647909836       -4.1112154175
 H        -3.0552096355        0.6877063153       -5.1686719766
 H        -1.6901368045        1.7121216174       -5.0451475420
 H        -2.0900863760       -5.4922620183       -1.5793104200
 H        -3.0704137202       -4.1492980331       -1.8744431620
 H        -1.3604785184       -3.9419143411       -2.0737475274
 H        -0.6509936085       -6.5152181103       -3.4635780544
 H        -0.0443344877       -4.9223982166       -3.8827239060
 H        -0.7697032787       -5.9341404383       -5.0972078540
 H        -4.9260593959       -9.1652367122        0.4326656456
 H        -3.6238563278      -10.4084065793       -0.0688571689
 H        -5.3182771168      -10.7063380848        0.2187781344
 H        -5.2924894633      -11.2910034519       -3.3477102897
 H        -5.9694715056      -11.7691679493       -1.8341648684
 H        -4.1304721041      -11.8812140326       -2.1887118684
 H       -10.8428356706       -4.8215510551       -3.2315838832
 H       -10.3092134917       -5.7793023666       -1.8889227133
 H       -11.4740763830       -6.4809330177       -3.0408519020
 H        -9.9826676192       -7.3202463796       -5.4432744218
 H       -10.5257223812       -8.1316207472       -4.0727388023
 H        -8.8003308092       -8.3300769649       -4.5379234874
 H        -7.9139740013       -0.0760317833       -7.2856001169
 H        -6.4225881287       -0.5738773205       -6.6716130213
 H        -7.8927435013       -1.0216531031       -5.8117954828
 H        -8.8504304559       -3.1198615158       -9.0605369270
 H        -8.9874129473       -1.3886692578       -9.0721394579
 H        -9.5988791156       -2.4293850730       -7.5580523843
 H        -1.2529614942       -1.5003263176      -10.0322671472
 H        -0.5767694766       -1.4511376890      -11.6858688136
 H        -2.0782144118       -2.4731814053      -11.3247966877
 H        -1.5462698296        1.9153734813      -11.3194347015
 H        -0.4642322896        0.8531046317      -12.0682104477
 H        -0.6313893851        0.8194859363      -10.2572862395
 H        -2.8333903176        2.7328782936      -18.5468302054
 H        -4.6202180789        2.7461709338      -18.2795253564
 H        -3.9279685397        1.6461532663      -19.5601459525
 H        -4.9098714369       -0.8434387585      -16.9886145759
 H        -4.9838199292       -0.4987386081      -18.7366963291
 H        -5.8300863381        0.6600959463      -17.5464971146
 H         2.9720409558       -2.7501810669      -20.3666656241
 H         2.1772589832       -1.7320198915      -21.5280065695
 H         1.2056082046       -2.5560576773      -20.2580570513
 H         3.4533229790       -2.0436622389      -17.9405938106
 H         1.7147454937       -2.0513354338      -17.9014669429
 H         2.4871224694       -0.6132295260      -17.4406134422
 H         7.2343073771        1.7601882716      -22.2728641374
 H         8.4970910021        2.2360449416      -20.8515317264
 H         8.1392892680        3.3048932828      -22.1774579671
 H         7.5248942403        5.0219819852      -20.2575022806
 H         7.3618946020        3.7193060433      -18.9029233345
 H         6.0112363132        4.7725506951      -19.2474049470
 H         0.0284148298        5.3057605157      -24.9094707972
 H         0.3435084521        5.2298977233      -23.1792785806
 H         0.5438412193        3.8356759021      -24.4019950862
 H         3.7586329796        4.9885009042      -26.0075922441
 H         2.1656904785        4.4138441090      -26.3961378990
 H         3.1402714240        3.6724042035      -25.0831085885
 Na       -5.8146960177       -4.1489959186       -3.8166811677
 Na        2.8461763831        2.8454658051      -20.8454478676
