232

 C         0.7745210708        7.7371034164      -25.2956959779
 C         2.0957608106        7.0291906981      -25.0077975365
 O         3.1470009542        7.5608533102      -25.3532416715
 C         2.0990434076        5.4587904675      -24.4685531389
 C         2.9045534562        5.3133354091      -23.1757940908
 O         2.4720990061        4.7917323063      -22.1118742751
 C         4.4243952776        5.9541664189      -22.9688333262
 C         5.3344097472        5.3107637802      -21.9375456635
 C         5.4397109344        3.7874183953      -21.9910466977
 O         4.8404520253        3.1125985031      -22.8408626101
 C         6.2893785698        3.1083280169      -20.7606089850
 C         5.4348641881        2.0733024890      -19.8883058664
 O         4.4362290118        2.4832844721      -19.3752177661
 C         6.0664942903        0.7160865350      -19.6501599813
 C         5.0018008466       -0.3474739767      -19.4963809131
 C         3.6679787810       -0.1529261332      -20.3067216604
 O         3.5492079597        0.4298976681      -21.3589369393
 C         2.4297341507       -0.9702573494      -19.6588851690
 C         1.2324785248        0.0530568262      -19.6144548123
 O         1.3479564427        1.2468992780      -19.8620182517
 C        -0.1292253750       -0.4955460784      -19.0608398466
 C        -1.1462302731        0.5685122494      -18.7166629878
 C        -2.4292085842       -0.1102208688      -18.1983643155
 O        -2.5524416817       -1.2686597838      -18.1434030771
 C        -3.5589450945        0.8507570700      -17.6388873105
 C        -3.2699174276        1.4125519086      -16.1129461586
 O        -2.9708727108        2.5794604945      -15.8343704451
 C        -3.2932637718        0.3646750329      -15.0758642689
 C        -2.6741262352        0.7287137973      -13.7226143882
 C        -2.9809789551       -0.3079142883      -12.6036624279
 O        -3.8398232260       -1.1609177952      -12.8375116270
 C        -2.1213851279       -0.1747054406      -11.2114467385
 C        -3.2547833754        0.0408362356      -10.1842631882
 O        -3.4112176613        1.1061001502       -9.6327419495
 C        -4.1832546401       -1.1507511089       -9.9394004532
 C        -5.6754535562       -0.8598233999       -9.3633648489
 C        -6.3174243741       -2.1828983485       -8.8281245909
 O        -6.0305303932       -3.2258773373       -9.3101844919
 C        -7.5204293635       -2.1266183591       -7.7836866888
 C        -7.2509628013       -3.4196493782       -6.8377350621
 O        -6.5356814478       -3.2972040352       -5.8736666866
 C        -7.9356124625       -4.7399114810       -7.1230622790
 C        -7.9584568878       -5.7703416055       -5.9437734925
 C        -9.0107155247       -5.3985325560       -4.8651295908
 O        -9.5944618792       -4.3667459723       -5.0219059553
 C        -9.3357932260       -6.4269096334       -3.6613891653
 C        -8.1456913669       -6.6220158720       -2.5780648527
 O        -7.3302921383       -5.7316758778       -2.3073301947
 C        -8.3892388572       -7.8380899493       -1.5944084950
 C        -6.9775946592       -8.2503135846       -1.1612929657
 C        -6.2514992833       -9.2449948647       -2.2086311052
 O        -6.6796942348       -9.4328278192       -3.3095731628
 C        -4.9124237973       -9.9905675559       -1.8143960557
 C        -3.8451169714       -9.0716102074       -2.3819094985
 O        -3.0018634571       -8.4630561225       -1.6928717644
 C        -3.9309646519       -8.7103798774       -3.9053727826
 C        -2.8551730453       -7.7015882698       -4.2979023267
 C        -3.3040935473       -6.2927310281       -3.7440646289
 O        -4.4014502812       -6.1370743975       -3.2908601556
 C        -2.2739057025       -5.0515185318       -3.6790148060
 C        -2.6778349342       -3.8233201485       -4.6304495084
 O        -3.8252599976       -3.4506087115       -4.7115848640
 C        -1.5987485475       -3.0181836128       -5.5054671172
 C        -1.8627864694       -1.5712709278       -5.3172211996
 C        -1.5150944643       -1.0656948688       -3.8393585644
 O        -0.8541831937       -1.7549380939       -3.0955326521
 C        -2.0519144447        0.2701194788       -3.3346406672
 C        -3.2636252494       -0.1405440434       -2.5235736905
 O        -4.4551564038        0.1055923681       -2.8484012396
 C        -2.9688327199       -0.9264782217       -1.1424369495
 C        -4.3215634200       -1.0956761292       -0.4904055730
 C        -5.2919594430       -1.6930342184       -1.4909476227
 O        -4.9498429817       -2.5976535027       -2.2501279129
 C        -6.8179139277       -1.5671147222       -1.3000644515
 C        -7.7343561343       -1.6427366812       -2.6182993393
 O        -7.5023697385       -2.5348928500       -3.4439663791
 C        -8.8608959434       -0.5723759167       -2.8300825309
 C       -10.0869291059       -1.0763384115       -3.5545523605
 C       -11.1217685323        0.1103749668       -3.6767092424
 O       -10.8875817127        1.1797172461       -3.1641410221
 C       -12.3666904791        0.0058756548       -4.5862680383
 C       -11.7368083420       -0.0008438413       -6.1420101466
 O       -11.0368808879       -0.9599878170       -6.4013872494
 C       -12.0795381867        0.9890195045       -7.2488376389
 C       -13.1749847045       -1.3282713163       -4.4431459557
 C       -13.2585261281        1.2019136368       -4.3450586791
 C        -7.3575084508       -2.8402816164       -0.4742011799
 C        -7.1104517373       -0.3188159115       -0.4774819814
 C        -0.9714889938        0.8924382399       -2.4765446982
 C        -2.5367385102        1.2622342021       -4.4013246143
 C        -2.3354783620       -4.6508531567       -2.2379313756
 C        -0.8694273066       -5.5616693624       -4.1503953646
 C        -4.6494053976      -10.0178500613       -0.2380884962
 C        -4.8690117728      -11.3675882733       -2.3949965093
 C       -10.5551276444       -5.7738491655       -2.8113674367
 C        -9.8520175661       -7.7544425544       -4.3906119187
 C        -7.5905564282       -0.9309984858       -6.7625640452
 C        -8.8564984625       -2.0442560249       -8.5633022886
 C        -1.4903341146       -1.5736477854      -10.9297359289
 C        -1.0360399520        0.9721601925      -11.2378732143
 C        -3.7168053317        2.1073127765      -18.5622533268
 C        -4.8051896165        0.0254087854      -17.6665608243
 C         2.0415852907       -2.1490318728      -20.6554569500
 C         2.7593961365       -1.3296877368      -18.2405503671
 C         7.5756690639        2.3802539608      -21.2109790991
 C         6.8163222093        4.1531031924      -19.6989040807
 C         0.6959721076        5.0062205842      -24.1955006733
 C         2.7278955452        4.6228079997      -25.5788665599
 H         0.7658731553        8.5371215938      -26.0788297549
 H         0.5354483115        8.2138659850      -24.2845668460
 H         0.0141170305        6.9933058954      -25.5964771266
 H         4.3382872465        7.1054809878      -22.8770128893
 H         4.9262722194        5.7358665063      -23.9703317338
 H         5.1698508975        5.8195855170      -21.0164293723
 H         6.3683662647        5.6435848771      -22.2240138507
 H         6.6243562954        0.6255926820      -18.6818264768
 H         6.7306498682        0.4625437802      -20.3851537962
 H         4.8087271137       -0.2778750249      -18.4844256927
 H         5.5943088050       -1.3206736776      -19.7049139406
 H         0.1612863853       -1.1195720033      -18.2027757123
 H        -0.5246712134       -1.1426989411      -19.8284885511
 H        -1.4531071654        1.2994163501      -19.4195859580
 H        -0.8781399692        1.2028332134      -17.8888789064
 H        -2.8156987980       -0.5996595191      -15.4263374479
 H        -4.3293399180        0.1033649492      -14.9051692716
 H        -2.7999577780        1.8275674722      -13.4656343456
 H        -1.5977877604        0.6888414276      -13.7800106342
 H        -3.5678178503       -1.8452423071       -9.2069047072
 H        -4.1857028704       -1.7270595534      -10.8034662402
 H        -6.3943721354       -0.5556049088      -10.1771971471
 H        -5.5972349210        0.0145392544       -8.6098048025
 H        -7.3183173004       -5.2088031991       -7.9809384738
 H        -8.9806543282       -4.5517600410       -7.5043779466
 H        -7.0306596043       -5.9620839256       -5.4706888160
 H        -8.3353915828       -6.7257750245       -6.3683523609
 H        -8.9957202971       -8.6494579335       -2.0348828695
 H        -8.9273296629       -7.4214701769       -0.6700442860
 H        -6.9262275445       -8.7223043903       -0.1266160366
 H        -6.4569209953       -7.2664489616       -1.0228890520
 H        -4.9145016287       -8.3147682547       -4.1035074889
 H        -3.8139253350       -9.6313315158       -4.4664398357
 H        -2.6921498856       -7.6505743411       -5.3471809235
 H        -1.9037258124       -7.9983123640       -3.9589646247
 H        -1.7910027960       -3.2465946397       -6.6027201031
 H        -0.5842089581       -3.2528733300       -5.2478914928
 H        -2.8984805963       -1.2588506452       -5.6763823424
 H        -1.0631990938       -0.9657334641       -5.7963079246
 H        -2.3635732885       -0.2606102676       -0.4624967985
 H        -2.3421352219       -1.7975373128       -1.4044027512
 H        -4.7157377355       -0.2093059829       -0.0568567412
 H        -4.3241657261       -1.7537734333        0.4183114368
 H        -8.4797765693        0.2504917764       -3.3584312461
 H        -9.2136002549       -0.2925055795       -1.8628105007
 H       -10.5685499690       -1.6951427946       -2.9003489121
 H        -9.9143529336       -1.5694335034       -4.4988898576
 H       -12.1975048921        2.0554026483       -6.9927724559
 H       -13.0180849431        0.7017733523       -7.7532437974
 H       -11.2301361129        0.9720790288       -7.8931217349
 H       -12.5146617900       -2.1989323854       -4.3318476942
 H       -13.7530912501       -1.4513792102       -5.3336752150
 H       -13.7946752198       -1.3735996278       -3.5636365701
 H       -12.8270658104        2.0402169873       -4.9879428250
 H       -13.3993124043        1.6635111051       -3.3639274757
 H       -14.2526907776        0.9380331205       -4.6251206913
 H        -8.3627858689       -2.5720757403       -0.2638173824
 H        -6.9843982235       -3.1908052864        0.4924655961
 H        -7.2320407067       -3.6341870392       -1.1473686464
 H        -8.0577388872        0.1631736254       -0.6815322097
 H        -6.3142134870        0.5138889033       -0.5829934014
 H        -7.1683554373       -0.5829111678        0.6153012681
 H        -1.4343877091        1.7371545354       -2.0486809821
 H        -0.0974213388        1.3557571949       -2.9813876766
 H        -0.7381110005        0.0714386795       -1.7795064800
 H        -2.7515240915        2.2751641045       -3.9547591573
 H        -3.5213338585        0.9569326864       -4.7783594571
 H        -1.8731608391        1.5319325983       -5.2113734173
 H        -2.3515819880       -5.3928857051       -1.5024151253
 H        -3.3245691696       -4.2151399241       -2.2088018573
 H        -1.6321542264       -3.8409803017       -1.9890108497
 H        -0.6343960144       -6.4385391714       -3.5924561774
 H        -0.0378333210       -4.8504384252       -3.9830943303
 H        -0.8040147985       -5.8325326600       -5.1532855199
 H        -5.0300604381       -9.1143101376        0.1940466406
 H        -3.5929173189      -10.2638769496       -0.0789047559
 H        -5.2702683239      -10.6918992050        0.3143207173
 H        -5.0127889684      -11.2848223574       -3.5006536158
 H        -5.7448983178      -11.9187454499       -2.0373565450
 H        -3.9039652251      -11.8553025978       -2.3091582425
 H       -10.6234514824       -4.6723467198       -2.9888427333
 H       -10.4942263879       -5.9707915528       -1.7069534687
 H       -11.4577051691       -6.2507987281       -3.1857682075
 H       -10.2367560839       -7.4487171338       -5.3960606351
 H       -10.6692071689       -8.1763362602       -3.8088041072
 H        -8.9481525047       -8.4421020887       -4.4579389765
 H        -8.1418144436       -0.0935290719       -7.3149660137
 H        -6.5303531527       -0.6464613210       -6.5392114597
 H        -8.1127489635       -1.1811375960       -5.8483908667
 H        -9.1183175616       -3.0323535193       -9.0601489120
 H        -8.6338516569       -1.3204566759       -9.3768427465
 H        -9.6050100458       -1.8685360863       -7.7939159845
 H        -1.2662088730       -1.6899753193       -9.8832299258
 H        -0.5667695760       -1.6158933316      -11.6021780567
 H        -2.1709914514       -2.2355768792      -11.2631745105
 H        -1.4968542854        1.8720064177      -11.5135214265
 H        -0.1447639505        0.9699124890      -11.9658327496
 H        -0.7724016947        1.1340254564      -10.2253792895
 H        -2.6059548349        2.5214442122      -18.5102124595
 H        -4.3785602346        2.8095705962      -18.0825667450
 H        -4.0429957557        1.7494089030      -19.5221501368
 H        -4.7854618911       -0.8525114136      -17.0121711208
 H        -4.8670663609       -0.4521840624      -18.6965630483
 H        -5.7659169095        0.5958223332      -17.4696484430
 H         2.6763195962       -2.9564436681      -20.4623046742
 H         2.1695227753       -1.8033045836      -21.6739731462
 H         1.0230586101       -2.4327420127      -20.4885151467
 H         3.7746316871       -1.7489383217      -18.1980209688
 H         2.1130250571       -2.0837077241      -17.8651947765
 H         2.6346435622       -0.5121870763      -17.5230980978
 H         7.2826182173        1.6594038000      -21.9859264785
 H         8.3168398219        2.0871802033      -20.4915403862
 H         8.1450020882        3.1793889582      -21.7813140286
 H         7.6540153052        4.7573453732      -20.1043571343
 H         7.0993511843        3.5405774504      -18.8034178022
 H         6.0756024891        4.8393017737      -19.3611668749
 H        -0.0033546708        5.2287662948      -25.0746170129
 H         0.3492054202        5.4094895958      -23.2198376412
 H         0.6254027495        3.9202925523      -24.2596791841
 H         3.6731665146        5.0973843759      -26.0489991413
 H         1.9898580162        4.4902719637      -26.3365712517
 H         3.0424382791        3.7042979216      -25.1540270741
 Na       -5.7255363235       -4.1611304952       -3.8568463067
 Na        2.8547949317        2.7962051334      -20.7823733604
