232

 C         0.5925343635        7.7149775853      -24.8079293046
 C         1.9328210091        7.0177883000      -24.8436927376
 O         2.9306578045        7.4509852033      -25.3202264215
 C         1.9303427963        5.4682550722      -24.2872460404
 C         2.8485806826        5.3113036121      -23.1147820146
 O         2.4447043351        4.9654280279      -21.9752498522
 C         4.4305023183        5.5207410207      -23.2811601952
 C         5.1328085211        5.3635621756      -21.9956188090
 C         5.2286229767        3.9192393477      -21.6628670413
 O         4.5876169613        3.0551166322      -22.3040344915
 C         6.2915075080        3.3178284685      -20.5644425248
 C         5.5032042168        2.1263011211      -19.8250700968
 O         4.4048072574        2.3484094843      -19.3724120475
 C         5.9731098137        0.5668887149      -19.7838132725
 C         4.8544042596       -0.2282658117      -19.0501426140
 C         3.6012741161       -0.3187572466      -19.9532618546
 O         3.5946515026        0.3101877186      -21.0000785291
 C         2.3054115112       -1.1030339292      -19.6776020547
 C         1.1670952247       -0.0690901407      -19.6197823520
 O         1.3569883078        1.1186482658      -19.9530135625
 C        -0.3425956479       -0.5531770312      -19.3510871168
 C        -1.2215176510        0.5479901810      -18.8089852701
 C        -2.4064418548       -0.0855324003      -17.9691945199
 O        -2.5572805879       -1.2413911242      -17.8232873967
 C        -3.6529493321        0.8877311296      -17.5220170387
 C        -3.1335399081        1.2544321391      -16.1273349236
 O        -2.6316746037        2.3472275179      -15.8299296956
 C        -3.0183866527        0.1351245309      -15.1694450840
 C        -2.2558118478        0.5493306045      -13.8820228999
 C        -2.8459692751       -0.2626069268      -12.6064355301
 O        -3.7977229470       -0.9883509282      -12.7339160513
 C        -2.1955423935       -0.1350910098      -11.1537466216
 C        -3.3202896948        0.0234606928      -10.0344371030
 O        -3.5154575580        1.0705988336       -9.4471307451
 C        -4.1424489090       -1.1743583200       -9.8009815145
 C        -5.2876380736       -0.9458039963       -8.8046643507
 C        -6.1134375094       -2.2168544213       -8.6442600281
 O        -5.7905545095       -3.2884636612       -9.1477941361
 C        -7.5084553357       -2.2687645726       -7.7394700766
 C        -7.2910428593       -3.4247910763       -6.7457690194
 O        -6.6390087503       -3.2136122832       -5.7718652586
 C        -7.9325813680       -4.7423565138       -6.9954459836
 C        -7.9963367323       -5.7631972809       -5.8116511216
 C        -9.1395569570       -5.2441201749       -4.8592056796
 O        -9.7914503798       -4.3210476125       -5.2116794186
 C        -9.4100980237       -6.2245418127       -3.5804763235
 C        -8.0665260172       -6.6559795151       -2.8801753650
 O        -7.1161709073       -5.9439985020       -2.8448623764
 C        -8.1413783002       -7.7460798479       -1.7118377296
 C        -6.7277450560       -8.2388818994       -1.4540509195
 C        -6.0863712341       -9.2620854061       -2.4385944711
 O        -6.5286212239       -9.4191039604       -3.5647736131
 C        -4.6480140728       -9.9175930124       -2.0212407201
 C        -3.4634940186       -8.9824047372       -2.4591893153
 O        -2.8173861527       -8.2922103706       -1.6631338658
 C        -3.4225710374       -8.8519698699       -3.9698739883
 C        -2.4702960233       -7.6479005485       -4.4103248948
 C        -3.1311839886       -6.2256307815       -4.1430229082
 O        -4.2858721535       -6.0473412612       -4.2890415400
 C        -2.1260472711       -4.9603654607       -3.9140855114
 C        -2.6714549166       -3.8549820134       -4.8469964675
 O        -3.8533015254       -3.7224495820       -5.0717231867
 C        -1.5507789011       -2.9000072303       -5.5825896177
 C        -1.9918260318       -1.4791856157       -5.3282187654
 C        -1.5769233645       -0.9763079938       -3.9124698496
 O        -0.8338459189       -1.6388785705       -3.2061954169
 C        -2.1502687903        0.4010765672       -3.4403705820
 C        -3.3300289070        0.0244094253       -2.4508044920
 O        -4.5363805395        0.1259300929       -2.7473177949
 C        -2.9524478320       -0.6605953407       -1.1239501363
 C        -4.1637635234       -1.4080892716       -0.4754868915
 C        -5.2344795968       -1.8804143318       -1.4953453527
 O        -4.9809385651       -2.7841322304       -2.2535263002
 C        -6.8176324080       -1.5789560294       -1.1260500507
 C        -7.7337587649       -1.7449849583       -2.5021968093
 O        -7.8114557241       -2.8654963525       -3.0219646785
 C        -8.5339503310       -0.5641652896       -2.9563946766
 C        -9.9393443414       -0.9138611451       -3.4827480786
 C       -10.9799541052        0.1376852157       -3.7242986491
 O       -10.7783399091        1.2618643275       -3.1968289102
 C       -12.3341306411       -0.1119675915       -4.4366425138
 C       -11.8922282548        0.1684978145       -6.0419476559
 O       -11.4202234714       -0.8018529473       -6.5634215666
 C       -12.0711078994        1.6073323408       -6.5835490525
 C       -12.7588920952       -1.5694128475       -4.3251696341
 C       -13.4764766252        0.8659890432       -3.9140011734
 C        -7.2681621687       -2.7438620742       -0.2131739101
 C        -7.2173182055       -0.2785818118       -0.4471655004
 C        -0.8562083194        1.1334395990       -2.6800389492
 C        -2.7747392542        1.3141818908       -4.5601197364
 C        -2.4762126302       -4.4334800519       -2.3493373153
 C        -0.7064550702       -5.3165548517       -4.1273190263
 C        -4.5970556252      -10.2666141844       -0.5251162863
 C        -4.7111032755      -11.2758055712       -2.9656106111
 C       -10.3559643794       -5.5674400252       -2.5934407607
 C       -10.1269366166       -7.4394062002       -4.2884087302
 C        -7.8884483412       -0.9738479933       -6.9723082835
 C        -8.7309760652       -2.5534482374       -8.6766560182
 C        -1.4354877675       -1.4880601026      -10.9789788508
 C        -1.2909814701        1.1533813698      -11.0140455981
 C        -3.8116730535        2.1298173669      -18.4852213569
 C        -4.9974524871        0.0552531138      -17.5326583608
 C         2.0236592716       -1.7794479366      -21.1020132201
 C         2.3890026903       -2.1642572945      -18.4830112129
 C         7.5161162367        2.9380259458      -21.4206983218
 C         6.7446642123        4.4386094007      -19.5106672102
 C         0.5417993704        4.8862893982      -23.9661721590
 C         2.4386867217        4.5547893556      -25.4702585862
 H         0.9020261163        8.7860014357      -24.8955734764
 H         0.1020306582        7.5289440530      -23.8417836751
 H        -0.0378722999        7.4797572737      -25.6163196274
 H         4.5876778078        6.5881064290      -23.6947830932
 H         4.8537051357        4.6374803512      -23.9375164748
 H         4.6798416463        5.9131779483      -21.1600947972
 H         6.1589830437        5.8811095189      -22.1107471495
 H         7.0379440538        0.3833801236      -19.4302929739
 H         6.0587690167        0.2062114089      -20.7670018911
 H         4.6562623238        0.3154626539      -18.2244695778
 H         5.2790357611       -1.2985138582      -18.8268676381
 H        -0.4008081875       -1.4851638722      -18.7828519253
 H        -0.6358080879       -0.7881193998      -20.3353897314
 H        -1.8757247903        0.9437852549      -19.5944274303
 H        -0.7416860356        1.3797410301      -18.3084082011
 H        -2.5856973900       -0.7872148667      -15.6174237251
 H        -4.0079042292       -0.1376543613      -14.8687117310
 H        -2.3326829144        1.7053805958      -13.8317340136
 H        -1.1811469885        0.3507864890      -13.8838565802
 H        -3.3955696467       -2.0034583753       -9.4749645011
 H        -4.4421581529       -1.4289456876      -10.7610381697
 H        -5.8083766895       -0.0333462001       -9.0592609676
 H        -4.8810725727       -0.7036321841       -7.7835568236
 H        -7.3927318455       -5.1751136262       -7.8655169305
 H        -8.8893081959       -4.5749343938       -7.4489382908
 H        -7.0409318985       -5.9176126633       -5.3414865211
 H        -8.3325863685       -6.7896270841       -6.1702564493
 H        -8.7512034467       -8.6051726750       -1.8790039120
 H        -8.5401741862       -7.1969914462       -0.8744773182
 H        -6.5808157594       -8.5936613979       -0.3948241255
 H        -6.0037794845       -7.3922544581       -1.5104633861
 H        -4.4524008234       -8.8186763648       -4.3457920758
 H        -2.9409929445       -9.8111091408       -4.2781943402
 H        -2.3555505694       -7.6966048356       -5.4514713722
 H        -1.5202119244       -7.8267035499       -3.9011103325
 H        -1.4756831396       -3.0175653046       -6.7173002162
 H        -0.5324692615       -3.0698765543       -5.3420661024
 H        -3.0667027586       -1.3041923757       -5.4298016868
 H        -1.3700151790       -0.8012461254       -6.0407352026
 H        -2.5094607582        0.1577153629       -0.5246306619
 H        -2.2463534932       -1.4209149109       -1.4755335205
 H        -4.6811431904       -0.9066780922        0.2911949462
 H        -3.8069363735       -2.3215183743        0.0636142092
 H        -8.0412013898       -0.0603392041       -3.7395946275
 H        -8.6495734053        0.1812804061       -2.1404555812
 H       -10.3663936840       -1.4504626040       -2.6582613703
 H        -9.9640980602       -1.6189734038       -4.3596742833
 H       -11.9131411773        2.2686462406       -5.7413744398
 H       -13.1187820921        1.7921168943       -6.9555341890
 H       -11.4563750707        1.8021415769       -7.3737796071
 H       -12.2083077684       -2.1655730991       -4.9589553241
 H       -13.8218540457       -1.6758180910       -4.5255474209
 H       -12.4940215853       -2.0336682727       -3.3849807709
 H       -13.1103024623        1.8441843404       -3.5373161763
 H       -14.1244506006        0.4775740096       -3.1519815081
 H       -14.1123196530        1.1306996532       -4.7584656365
 H        -8.3813264852       -2.7261405110       -0.2569621593
 H        -6.9393618430       -2.6729535857        0.8810964184
 H        -6.9731851670       -3.6953141491       -0.6307833453
 H        -8.1224867788       -0.2940658578        0.1368885694
 H        -7.2156999512        0.6306380654       -1.0743141222
 H        -6.4669519517       -0.2141568450        0.2947977611
 H        -1.1342371719        2.1621406063       -2.2950161548
 H        -0.2030333409        1.3690371451       -3.5280974004
 H        -0.3859268233        0.4440895079       -1.8896687518
 H        -2.8104846257        2.3015171601       -4.1908499748
 H        -3.7693617351        1.1069222821       -4.7896983532
 H        -2.1618963891        1.4591611751       -5.3665174271
 H        -2.1408102942       -5.1458047726       -1.6161737025
 H        -3.4770148876       -4.3148606782       -2.1828511866
 H        -1.8330289048       -3.6091911785       -2.1283051617
 H        -0.4385587156       -6.0641550929       -3.3629975024
 H         0.0856347700       -4.5135550911       -4.0603424380
 H        -0.5933171897       -5.7463401263       -5.1224450877
 H        -4.4151379895       -9.3484309567        0.0190124423
 H        -3.7853871702      -10.9856871201       -0.3920848685
 H        -5.5301948198      -10.6441145657       -0.1108047192
 H        -5.0722557776      -11.1817338042       -4.0105112627
 H        -5.2804186331      -12.0125534946       -2.3625849392
 H        -3.7566339711      -11.8174834190       -2.9671490532
 H        -9.9311372750       -5.3195132265       -1.6339560930
 H       -11.2280868553       -6.1801801295       -2.4654200600
 H       -10.6852338198       -4.6825576498       -3.0619435163
 H       -10.8423120595       -7.0042484044       -4.9385310768
 H       -10.5932357945       -8.0522995428       -3.5232065510
 H        -9.4164578743       -7.9560714422       -4.8262718003
 H        -8.0594749185       -0.1733342414       -7.6741893773
 H        -7.1340699067       -0.7687031839       -6.2957055304
 H        -8.7875106102       -1.0573517739       -6.4504732335
 H        -8.5439057370       -3.4013526491       -9.3517779377
 H        -9.0149748612       -1.5663981981       -9.0961119168
 H        -9.4457621008       -2.8819410653       -7.9478066757
 H        -0.9660364345       -1.5977176187      -10.0002190609
 H        -0.5696537116       -1.3605198218      -11.6882555192
 H        -2.0977253702       -2.2130147780      -11.3481805308
 H        -1.6917024350        2.1475208448      -10.9502168649
 H        -0.6149479922        1.1217250635      -11.9060552169
 H        -0.7284440868        0.9801157151      -10.0735867286
 H        -2.8524861016        2.7408274673      -18.2851449193
 H        -4.6798227231        2.7196309772      -18.2118100704
 H        -3.7125430591        1.7408222866      -19.5037637860
 H        -4.8429773158       -1.0046750626      -17.2887504697
 H        -5.5108718392        0.2291103221      -18.5474730402
 H        -5.7402824764        0.5123819149      -16.7875564314
 H         2.9686104315       -2.1196008799      -21.5398404736
 H         1.7137394057       -0.9143751204      -21.7281650385
 H         1.2992854683       -2.4941638502      -21.0386258804
 H         3.3678832531       -2.6525305017      -18.4281183063
 H         1.6483576609       -2.9350473341      -18.6429548671
 H         2.1857386520       -1.6871998334      -17.5225670330
 H         7.2393412619        2.2010097294      -22.2343649780
 H         8.3594916039        2.5656691356      -20.8114260051
 H         7.8197590707        3.9026460393      -22.0324234070
 H         7.2443643336        5.3682811527      -19.9272635404
 H         7.4985530754        3.7731139226      -19.0361941596
 H         5.9178435248        4.7829349740      -18.8604202825
 H        -0.1308696226        4.7643062317      -24.9072193815
 H        -0.0707972303        5.5348167648      -23.3406732862
 H         0.5482523417        3.9937450891      -23.4151947358
 H         3.3645449245        4.9057195114      -25.9574794884
 H         1.6570333915        4.3790674172      -26.1125760861
 H         2.6860930663        3.5866938847      -25.0775609418
 Na       -5.9254338560       -4.0321386274       -3.8321498751
 Na        2.6562955519        2.5407693540      -21.3056230642
