232

 C         0.6817375648        7.8043942756      -24.4697693510
 C         1.8304872705        6.7374862425      -24.6224361953
 O         2.9060367203        7.2486502091      -24.9746560403
 C         1.7860864194        5.2298432290      -24.3305960905
 C         2.8166695104        5.0788782276      -23.0652651138
 O         2.3140778804        4.8965352345      -21.9947056989
 C         4.2759623691        5.5553528654      -23.3719737590
 C         5.2380427430        5.3630055131      -22.0696242325
 C         5.2041073548        3.9340242895      -21.6322156392
 O         4.4447379708        3.1815656032      -22.1737192751
 C         6.2956230298        3.3595441012      -20.6050077377
 C         5.4588151472        2.2538823297      -19.7597333567
 O         4.3590977941        2.6346847121      -19.3543620566
 C         5.9224561487        0.8087806604      -19.5815306435
 C         4.8586631432       -0.1787104401      -19.1439839144
 C         3.6739728847       -0.2151156669      -20.1582710817
 O         3.7562254927        0.3383674571      -21.2332139035
 C         2.2375914246       -1.0244200681      -19.9463904339
 C         0.9442179516       -0.0499356210      -19.7322046121
 O         1.0311159138        1.1411739943      -19.8829503157
 C        -0.3036451462       -0.6636612821      -19.2348178372
 C        -1.3028172056        0.4587702155      -19.0104470236
 C        -2.4704693625       -0.1124329695      -18.1267774113
 O        -2.4419714013       -1.3151552509      -17.8338320213
 C        -3.5896391498        0.8420277816      -17.5703629027
 C        -2.9165304142        1.1646180105      -16.1607091978
 O        -2.5017414264        2.2605920618      -15.8493303833
 C        -3.0731919751        0.1745152366      -15.0236146338
 C        -2.2969411898        0.5366740146      -13.7721502334
 C        -2.9234665136       -0.1902462333      -12.5073738164
 O        -3.8992190384       -0.9372377442      -12.5606341025
 C        -2.1426699369       -0.1256309206      -11.1137189293
 C        -3.2321595396       -0.0468939875       -9.9604689224
 O        -3.5404195654        1.0382508935       -9.4994723818
 C        -4.2602531828       -1.2693231005       -9.7782918369
 C        -5.1650200977       -1.1342711944       -8.5593542794
 C        -6.2182436052       -2.3784383027       -8.5056900667
 O        -5.9446042395       -3.4227588873       -9.0004787687
 C        -7.6391703911       -2.3106594837       -7.8295868032
 C        -7.4274564221       -3.3880106591       -6.6946117702
 O        -6.8507886553       -2.9957116715       -5.6762762811
 C        -7.6652902253       -4.8564705673       -6.9891645978
 C        -7.9745133767       -5.6726613591       -5.7853961978
 C        -9.1112537358       -5.2182908449       -4.8150879092
 O        -9.8357040344       -4.2343457737       -4.9500329483
 C        -9.3457546767       -6.2055012454       -3.5624659487
 C        -8.0302136008       -6.6829720586       -2.9322501505
 O        -6.9770306536       -6.0649759108       -3.1875944344
 C        -8.0949590452       -7.8452636273       -2.0587582867
 C        -6.7514740619       -8.2486661271       -1.3734930306
 C        -6.0855718883       -9.2024526260       -2.4905934168
 O        -6.6042826848       -9.2769139787       -3.5713810459
 C        -4.6710287180       -9.9565204237       -2.2092869885
 C        -3.5578091978       -8.8981638319       -2.6812850519
 O        -2.9533482958       -8.2921038809       -1.8075031309
 C        -3.1640950836       -8.7798286283       -4.2343866827
 C        -2.2239393471       -7.6366282411       -4.3686757272
 C        -2.9220079531       -6.2913289263       -4.3033112273
 O        -4.1627952115       -6.2888933581       -4.3901666959
 C        -2.0830778892       -4.9526341238       -4.0446983667
 C        -2.6165283209       -3.7560013957       -5.0094510193
 O        -3.8073256332       -3.5299475674       -5.1051493238
 C        -1.6638735594       -2.8306232619       -5.6786529916
 C        -2.1022457336       -1.4133986403       -5.3770662692
 C        -1.6430182469       -0.9748403792       -3.9791607555
 O        -0.8085552995       -1.5752858146       -3.3484624919
 C        -2.2404324069        0.4558601836       -3.4924703219
 C        -3.4567717617       -0.0218881847       -2.4950779764
 O        -4.5602401279        0.3084890633       -2.7782494758
 C        -3.1575349480       -0.7203420632       -1.1032623226
 C        -4.3536762017       -1.1984240265       -0.3737819851
 C        -5.3817870861       -1.7985650021       -1.4193248708
 O        -5.0628163474       -2.4680680828       -2.4013211010
 C        -6.9383874769       -1.5446303606       -0.9868661207
 C        -7.7918274110       -1.7627749602       -2.3203993131
 O        -7.8803168700       -2.8430739185       -2.8512790117
 C        -8.5529428991       -0.5140945705       -2.8461693046
 C        -9.8240394303       -1.0048276854       -3.5373349544
 C       -10.8661950931        0.1344326978       -3.5914002270
 O       -10.5623437093        1.2216289248       -3.2760073566
 C       -12.1769161875       -0.2313067622       -4.2666360101
 C       -11.8169469467        0.2657748925       -5.9071518829
 O       -11.5319255526       -0.5997474251       -6.7244611399
 C       -12.0051775044        1.7887282125       -6.1596915758
 C       -12.4341052692       -1.7353228735       -4.2422500123
 C       -13.3003367916        0.5744576477       -3.6655750998
 C        -7.3772510931       -2.7535019629       -0.0492282618
 C        -6.9444994207       -0.0424427748       -0.3481157877
 C        -1.1987646269        1.1809928120       -2.6515984040
 C        -2.7645513662        1.2688073211       -4.6104423094
 C        -2.4573224962       -4.7079894924       -2.6347231619
 C        -0.5365700454       -5.1843260915       -4.0902691351
 C        -4.4227555891      -10.2348449848       -0.7740529642
 C        -4.5334887667      -11.2260978795       -3.0521431288
 C       -10.2378854929       -5.4410087917       -2.5513754027
 C       -10.1328332336       -7.3648978272       -4.1299066929
 C        -7.9245400529       -0.9995827874       -7.1455149496
 C        -8.6483415805       -2.6704662942       -8.9506144935
 C        -1.1448629375       -1.2943577505      -11.0118100159
 C        -1.3030490176        1.1625356577      -11.0369055923
 C        -3.7861116005        2.2746451047      -18.2056838063
 C        -4.9341730697        0.0516372058      -17.4004761929
 C         1.9988589712       -1.9263467881      -21.2725790879
 C         2.3258291227       -2.0257274193      -18.7662472777
 C         7.5614350764        2.8612031403      -21.2915558653
 C         6.5902014086        4.3323729327      -19.3686386847
 C         0.4011240122        4.8839266640      -23.9028404535
 C         2.2681240569        4.4863155918      -25.5615226514
 H         0.9423529202        8.8532351663      -24.5454717039
 H         0.1743606461        7.5739110202      -23.5188159459
 H        -0.0442863206        7.4641618496      -25.3088239577
 H         4.2032432429        6.5731336252      -23.6582282401
 H         4.6430260069        4.9330698975      -24.1004242660
 H         5.0045118040        6.0822618924      -21.2796420207
 H         6.1780597357        5.6925373633      -22.3523865747
 H         6.8056359417        0.8138061408      -19.0178215257
 H         6.4116664903        0.4499694079      -20.5285798269
 H         4.4787417575        0.2647158520      -18.1494143386
 H         5.2889600621       -1.1438876503      -19.0748279412
 H         0.0041226782       -1.2339522367      -18.3419245845
 H        -0.5814720458       -1.4760076350      -19.9928401133
 H        -1.7824006431        0.6809531556      -19.9610144495
 H        -0.8314382379        1.3208648825      -18.4921096890
 H        -2.8400589200       -0.8493185176      -15.2797375925
 H        -4.1796925234        0.1750953511      -14.7667408249
 H        -2.4650360120        1.5612396575      -13.6385750264
 H        -1.1983263668        0.3617036390      -13.8451212165
 H        -3.7379564054       -2.1723276379       -9.7202960331
 H        -4.8376008940       -1.2230763799      -10.7975161346
 H        -5.6790789329       -0.1140363811       -8.5578557442
 H        -4.6319366627       -1.1136174987       -7.5756340038
 H        -6.8422080976       -5.2982792323       -7.5967598473
 H        -8.4839420180       -4.8737238420       -7.7802378725
 H        -7.0413194891       -5.8402404074       -5.2017773742
 H        -8.2605158888       -6.6497056536       -6.0376600946
 H        -8.5639581799       -8.7279765484       -2.6322910553
 H        -8.8360498676       -7.5456697147       -1.2298229410
 H        -6.9165197926       -8.6499803064       -0.3833149866
 H        -6.0962131760       -7.3780542794       -1.2082599170
 H        -4.0278317869       -8.4966185994       -4.8240743282
 H        -2.7586248049       -9.6976036182       -4.5722756719
 H        -1.7403604331       -7.8169795672       -5.3893850176
 H        -1.5862050891       -7.6327366442       -3.4927087680
 H        -1.5510220961       -3.0006384091       -6.7072310645
 H        -0.6090203060       -3.0656256292       -5.3725145834
 H        -3.2026365227       -1.3139794058       -5.3150298989
 H        -1.6896775562       -0.7352490306       -6.0092141391
 H        -2.6910165421        0.0338720324       -0.4488579093
 H        -2.5581706945       -1.6041047351       -1.3903832033
 H        -4.8589577753       -0.3827489723        0.2246135847
 H        -4.0723989786       -1.9401551522        0.3579727388
 H        -7.9194917599        0.0253042534       -3.6000838408
 H        -8.7549785691        0.2637281026       -2.1646265219
 H       -10.1615190245       -1.9302567092       -3.0423362365
 H        -9.6759623633       -1.3377183985       -4.5319592683
 H       -11.2014219756        2.3967829903       -5.6550141704
 H       -12.9435324730        2.1355457569       -5.8317151388
 H       -12.1057617764        1.9674317948       -7.3053655055
 H       -11.5397103420       -2.3335014677       -4.7015804404
 H       -13.2511432019       -1.8862372169       -4.9170397740
 H       -12.6997773291       -2.2616276260       -3.3471172673
 H       -13.3206774252        1.6445703655       -3.9145914648
 H       -13.2882600284        0.4780058921       -2.5483854380
 H       -14.2784295210        0.2711277016       -4.0653342382
 H        -8.3890956528       -2.7074513844        0.3213551366
 H        -6.6588959588       -2.6428526067        0.6950146624
 H        -7.3756278771       -3.7635345814       -0.5024159217
 H        -7.8984087274        0.4502580391       -0.5944711483
 H        -6.1715410500        0.6378972699       -0.7628835926
 H        -6.8732736127       -0.0982453701        0.7957647491
 H        -1.6436685885        2.1276075780       -2.5423377604
 H        -0.1458396484        1.2292107926       -3.0658167439
 H        -1.2639599822        0.8057393219       -1.6817271786
 H        -3.5694426809        2.0306470075       -4.3288066544
 H        -3.3377805241        0.6206654475       -5.3134790212
 H        -1.9569310089        1.8870642329       -5.1063422052
 H        -2.2603597519       -5.6095822583       -2.0862306936
 H        -3.5703283184       -4.5807330587       -2.4855441066
 H        -1.7751134818       -4.0352498340       -2.0985084799
 H        -0.2640589293       -6.0362982731       -3.5042576134
 H        -0.0422829957       -4.3662290921       -3.6586316905
 H        -0.0897547350       -5.2790957556       -5.0648309016
 H        -4.7000021497       -9.3035382405       -0.1828179493
 H        -3.3589686075      -10.4796916529       -0.5026728146
 H        -5.1000409870      -11.0521783898       -0.5035163904
 H        -4.6441698261      -10.9762590294       -4.1085628979
 H        -5.2826893103      -11.9469244608       -2.7683956973
 H        -3.6553721278      -11.8147815278       -2.8088584299
 H        -9.6928207044       -4.9771193548       -1.7048077617
 H       -11.0549737198       -6.0766171571       -2.1303718289
 H       -10.7354422541       -4.5988929037       -3.1237777042
 H       -10.9485961217       -6.8604645167       -4.7153207230
 H       -10.5218046480       -7.9412464353       -3.2888036143
 H        -9.4442459197       -7.9773416966       -4.8649502019
 H        -8.3610622615       -0.2278242071       -7.8751472456
 H        -6.9453318602       -0.5461301986       -6.6776281083
 H        -8.6749439838       -1.0848700689       -6.2952246403
 H        -8.2902597642       -3.6616921627       -9.2702237313
 H        -8.3828783606       -1.8979682110       -9.6502958490
 H        -9.7391109179       -2.5934438061       -8.6771342329
 H        -0.7161860221       -1.3297425121      -10.0129679088
 H        -0.3118577556       -0.9384666458      -11.6480262370
 H        -1.6320754508       -2.1425147137      -11.4485824742
 H        -1.9937048773        2.0107694360      -11.1471540729
 H        -0.5939678675        1.0896374380      -11.9100843878
 H        -0.7026448147        1.3516113462      -10.1823392945
 H        -2.8674671462        2.8486592874      -18.1903006165
 H        -4.4667119215        2.6580055735      -17.4439046130
 H        -4.1593652515        2.2126293924      -19.2218833077
 H        -4.7288332318       -0.7428855147      -16.6466837631
 H        -5.2973320622       -0.3668055673      -18.3279594221
 H        -5.7063988536        0.6871215200      -16.9909278095
 H         2.6153365831       -2.7770292235      -21.2321822165
 H         2.2296143475       -1.3628428945      -22.1323345243
 H         0.9034031891       -2.2498910773      -21.2397703933
 H         3.2983881729       -2.5143494399      -18.7550063400
 H         1.6018095300       -2.8379846176      -18.8577293052
 H         2.2462072664       -1.4840080753      -17.8218452208
 H         7.2268416507        2.0484283682      -21.9071778799
 H         8.1237259449        2.3609010393      -20.4955281204
 H         8.1066953553        3.5043688074      -21.8832135702
 H         7.1286839338        5.1925803925      -19.7017241185
 H         7.2052873421        3.7861649123      -18.6687081741
 H         5.6109307856        4.6156683376      -19.0293764940
 H        -0.3600192046        5.5039756390      -24.2556524580
 H         0.2135016837        4.8186007603      -22.8189839891
 H         0.1576176485        3.8118434118      -24.1898139868
 H         3.0992824626        5.0754808992      -25.9676846234
 H         1.4408838155        4.3448760510      -26.3440738256
 H         2.6420771161        3.4686277500      -25.4108819428
 Na       -5.7139349054       -4.3319800334       -4.0381517729
 Na        2.5940259174        2.3028769512      -21.2309473078
