232

 C         0.5711893132        7.6994570816      -24.1442893863
 C         1.7926289943        6.8521751011      -24.4926995975
 O         2.8031154251        7.2704575118      -24.9579711494
 C         1.7081360669        5.2850468523      -24.1424440124
 C         2.7181332121        5.0169401863      -23.0026757725
 O         2.4326901260        4.4249918183      -21.9324079504
 C         4.1805174784        5.4890240199      -23.2693366731
 C         5.1860425426        5.2579863677      -22.1563484543
 C         5.2172583815        3.8218709560      -21.6544795534
 O         4.7027477184        2.8575560607      -22.2636843576
 C         6.0530434443        3.4037556543      -20.4685009623
 C         5.1070524418        2.3361817453      -19.6404856090
 O         3.9807712341        2.5958162678      -19.2415429523
 C         5.6984300187        0.9324150519      -19.3965099680
 C         4.5284729566       -0.1204069763      -19.3001493270
 C         3.5564323074       -0.1769322290      -20.5574662049
 O         3.8071947948        0.2813759080      -21.6562374451
 C         2.2688764715       -0.9760421965      -20.1372663707
 C         1.1368816494       -0.0175129362      -19.8549300153
 O         1.1088057197        1.1510290392      -20.2051216340
 C        -0.2007079510       -0.5686266520      -19.1177604849
 C        -1.4523115729        0.3298385059      -19.1662695506
 C        -2.5129973999       -0.1994560895      -18.1008616728
 O        -2.6074245684       -1.3673206093      -17.7669488723
 C        -3.5472511163        0.8012954871      -17.5064441900
 C        -2.9099124876        1.1873626723      -16.0267357276
 O        -2.1874348856        2.1240762049      -15.8141789840
 C        -3.1357064911        0.1930206334      -14.8986407106
 C        -2.3222816085        0.5341313700      -13.5693554077
 C        -2.9866264413       -0.2601001426      -12.3915629398
 O        -3.9706878763       -0.9318114333      -12.5004167182
 C        -2.3062321111       -0.0376094315      -11.0127898125
 C        -3.3454665091       -0.1312569802       -9.9214855889
 O        -3.5088736395        0.8576776623       -9.2478715113
 C        -4.1272733494       -1.4371588869       -9.7393219556
 C        -5.0579663514       -1.2884626155       -8.5627823219
 C        -6.0709316920       -2.4507682109       -8.5383957096
 O        -5.7303455151       -3.5254721459       -9.0990814293
 C        -7.5540987328       -2.3063997112       -7.8763423362
 C        -7.5172979185       -3.2854126548       -6.6947403342
 O        -7.1529383213       -2.9473574165       -5.5744431930
 C        -7.8317849314       -4.7766573612       -7.1299817592
 C        -7.9842744031       -5.6992362273       -5.9613383813
 C        -8.9786853557       -5.2205252263       -4.9060653859
 O        -9.5200065147       -4.1501641636       -5.0094792053
 C        -9.2362038914       -6.1756907942       -3.5229907726
 C        -7.9972995726       -6.7349898588       -2.8798862846
 O        -6.8992411160       -6.2255819588       -2.9807336821
 C        -8.1251080955       -7.9280531009       -1.8541810955
 C        -6.7386909486       -8.5611748191       -1.5782150323
 C        -6.0109982959       -9.2218954551       -2.7345843735
 O        -6.4432605796       -9.3579203315       -3.8766687162
 C        -4.6279416183       -9.8498590331       -2.4274865128
 C        -3.4783293991       -8.8252871052       -2.8228867132
 O        -3.0961478259       -8.0474601223       -1.9927726561
 C        -2.9843646218       -8.8752162034       -4.3542283509
 C        -2.0211438044       -7.6095142672       -4.6047386802
 C        -2.8622092259       -6.3244140105       -4.4011782790
 O        -4.0379604813       -6.3061510239       -4.6705814721
 C        -2.0500692054       -4.9482560336       -4.0447838260
 C        -2.5341644654       -3.7632470056       -4.9227552152
 O        -3.7450994625       -3.5477923108       -5.0826635848
 C        -1.6499541753       -2.8260928008       -5.6850308980
 C        -2.0222101895       -1.3380976390       -5.5509491581
 C        -1.7242300883       -0.7698165349       -4.0685173527
 O        -0.9744411650       -1.4618814671       -3.3993151433
 C        -2.3490572889        0.5073793870       -3.5132502667
 C        -3.5249755354        0.0878102967       -2.5250661300
 O        -4.6596576063        0.4539552676       -2.6861236624
 C        -3.0009826663       -0.8739718855       -1.3824834242
 C        -4.2035226287       -1.2463832036       -0.4240529468
 C        -5.3938757239       -1.8459952223       -1.3347402100
 O        -5.1317513755       -2.4724659316       -2.3398995860
 C        -6.8902959890       -1.4490638473       -0.8395214214
 C        -7.6985011579       -1.7566357123       -2.2022669471
 O        -7.6497064384       -2.9219057925       -2.6345162803
 C        -8.4089887038       -0.5777648523       -2.9516226831
 C        -9.6396252325       -1.0194072904       -3.7040676804
 C       -10.7175034571        0.0088480626       -3.7179128293
 O       -10.4814819127        1.1860223245       -3.3288965336
 C       -12.1167030370       -0.3147976966       -4.2820100099
 C       -11.9531405942        0.3380759558       -5.7475350512
 O       -11.6568596328       -0.3481882579       -6.6694017798
 C       -11.9278972739        1.9061260049       -5.8695952387
 C       -12.4532163902       -1.8275976979       -4.5215361880
 C       -13.2377026281        0.2874396816       -3.3813976449
 C        -7.2584558526       -2.5626387360        0.3335235238
 C        -7.2093674377       -0.0704693610       -0.1438342544
 C        -1.3118833995        1.2760100406       -2.6349779092
 C        -2.9018703248        1.4661955320       -4.5697943273
 C        -2.4395399682       -4.6441845859       -2.6409231029
 C        -0.4561355210       -5.0960757548       -4.2710684325
 C        -4.4863381245      -10.1966542609       -0.8084655829
 C        -4.6078637861      -11.1293328070       -3.1765050704
 C        -9.9581791822       -5.3013614890       -2.4467965817
 C       -10.2473066334       -7.3139198242       -3.9846458925
 C        -7.8576017376       -0.8299670982       -7.5198432177
 C        -8.6102331010       -2.6569686877       -8.9780513840
 C        -1.2819147199       -1.2173828125      -10.7895869986
 C        -1.5105540741        1.2352933547      -10.9521587282
 C        -3.6674376912        2.0892302120      -18.3991572994
 C        -4.9278686789        0.0896155985      -17.3217307744
 C         1.9653652458       -1.8231746838      -21.3568420476
 C         2.5073923108       -1.8284928284      -18.8498135954
 C         7.4529420098        2.6566640129      -21.0093250705
 C         6.5497989836        4.6063310485      -19.6005300470
 C         0.3213240977        4.6486375737      -23.8418005846
 C         2.2131016542        4.5987651712      -25.4018165938
 H         0.9701237281        8.6508197519      -24.4408362377
 H         0.4139323818        7.7280050420      -23.0679111945
 H        -0.3377935417        7.4429557219      -24.5844682672
 H         4.1060385408        6.6107609437      -23.3499557877
 H         4.4962535022        4.9119551337      -24.2401005150
 H         4.9286620803        6.0305229465      -21.4400308408
 H         6.1883546899        5.6416749052      -22.5543839239
 H         6.4452406299        0.9772575780      -18.5175320613
 H         6.4374188222        0.6434725674      -20.1263191697
 H         4.0225850648        0.1735201884      -18.4110763428
 H         5.0286786720       -1.1080814402      -19.2225824345
 H         0.1469023726       -0.6768197788      -18.0897477441
 H        -0.4218558000       -1.5396253716      -19.4250859860
 H        -1.9444766503        0.2464870100      -20.1613651374
 H        -1.1996752832        1.2842983417      -18.7594853946
 H        -3.0351034173       -0.8826948765      -15.1539391529
 H        -4.1728287786        0.3615046092      -14.7040146511
 H        -2.3861663359        1.6635349263      -13.3991165213
 H        -1.3305106371        0.1660955736      -13.6609223982
 H        -3.4354554428       -2.2859846057       -9.4513030596
 H        -4.6190647277       -1.6535547125      -10.6250217021
 H        -5.5568581750       -0.3556290415       -8.5538852072
 H        -4.6151286647       -1.3173694764       -7.6068505831
 H        -7.1152601418       -5.1202348694       -7.8265463113
 H        -8.6844112711       -4.7864540873       -7.7183457880
 H        -7.0870260087       -5.7857545276       -5.3792108089
 H        -8.1845804291       -6.7793197093       -6.2840489394
 H        -8.6731288710       -8.6546052083       -2.3487719784
 H        -8.5268183987       -7.7541171948       -0.9195564749
 H        -7.0037171154       -9.3817907047       -0.8980409785
 H        -6.0919079382       -7.9456463011       -0.9734077491
 H        -3.8540168234       -8.9429518389       -5.0377774517
 H        -2.4048390513       -9.8546503504       -4.3637711788
 H        -1.7427755570       -7.5265997720       -5.6260070968
 H        -1.2071757810       -7.7146482049       -3.8164396136
 H        -1.7170830621       -3.1197539768       -6.7857677173
 H        -0.6331074462       -3.0253035733       -5.5488542441
 H        -3.0054818048       -1.1089638751       -5.9267523255
 H        -1.1467954135       -0.7111042917       -6.1003366538
 H        -2.2908654059       -0.3462492206       -0.7657978401
 H        -2.6547673762       -1.7216580842       -1.9629398855
 H        -4.5364499027       -0.4455314959        0.1766174724
 H        -3.8953166192       -2.0987449189        0.2295321658
 H        -7.6964783501       -0.0342378884       -3.5760721309
 H        -8.6167377143        0.2281915513       -2.1525344501
 H       -10.0201961914       -2.0093426926       -3.3282813594
 H        -9.2303773660       -1.3635274500       -4.7457280179
 H       -11.0309770445        2.1809477173       -5.3924883253
 H       -12.7216628014        2.3309864118       -5.1803401574
 H       -12.1085234437        2.3898959475       -6.7995473565
 H       -11.7803724417       -2.4049012869       -5.0590883103
 H       -13.4824573214       -2.0046239353       -4.9474625864
 H       -12.5766855907       -2.3041282180       -3.4993141456
 H       -13.3070331531        1.3457631034       -3.4865084709
 H       -13.0997381017        0.0379802286       -2.3637497430
 H       -14.2306383337        0.0652914569       -3.7621554624
 H        -8.1591188176       -2.2183075414        0.8150749000
 H        -6.4607468544       -2.8654740706        1.0591856222
 H        -7.8098745855       -3.3164508370       -0.1630112698
 H        -8.1592778441       -0.2095849760        0.3954769961
 H        -7.3140215928        0.7111909108       -0.8687853955
 H        -6.4346636413        0.2512946921        0.4626972286
 H        -1.8344000641        1.7720649115       -1.7521479308
 H        -0.8165448410        1.7730184309       -3.3918132923
 H        -0.5585495233        0.6247884415       -2.1607947664
 H        -3.2531534226        2.2931521556       -4.0080248007
 H        -3.7921684635        1.1027855025       -5.1063946233
 H        -2.2043977089        1.8850575422       -5.3011445058
 H        -2.2006993001       -5.3511572524       -1.7716974197
 H        -3.5205329915       -4.5849960823       -2.7115885910
 H        -2.0043938517       -3.6839895362       -2.3563691809
 H        -0.0119231215       -5.8681083322       -3.6183101368
 H         0.0648510331       -4.1499841390       -4.0154090102
 H        -0.0911287594       -5.3810434770       -5.2764882227
 H        -4.5033222364       -9.4217482612       -0.0640537026
 H        -3.5122274357      -10.6038114609       -0.6304870686
 H        -5.1879422968      -11.0510688344       -0.6787726457
 H        -4.9648280346      -10.9776162413       -4.1718536436
 H        -5.3445017704      -11.7862400630       -2.7324884833
 H        -3.6899649138      -11.6765330291       -3.1162634939
 H        -9.4538795382       -4.3187522897       -2.3593799941
 H        -9.8577092572       -5.7807727750       -1.4677571933
 H       -11.0124022879       -5.1433955678       -2.6611374207
 H       -11.0126358570       -6.8168735819       -4.5112477158
 H       -10.6422120464       -7.8392733299       -3.1142073051
 H        -9.7424028470       -7.9134357488       -4.6130480018
 H        -7.4787733799       -0.2592342132       -8.3138365969
 H        -7.3872580931       -0.4630403748       -6.6594448012
 H        -8.9158289023       -0.6168797112       -7.4230244295
 H        -8.2625238502       -3.5199743741       -9.4799885700
 H        -8.7256313886       -1.7702619437       -9.5932355779
 H        -9.5379386630       -2.6730783582       -8.4770406093
 H        -0.5721835114       -0.8305838917      -10.0674381898
 H        -0.8032586314       -1.5178169651      -11.6847554875
 H        -2.0060681836       -2.0187452319      -10.3976901587
 H        -2.2605616111        2.0060301742      -11.2034772820
 H        -0.6091957404        1.2593793054      -11.4759059242
 H        -1.1764244152        1.4627030875       -9.8813608445
 H        -2.7064427631        2.4516588547      -18.6522654413
 H        -4.2702495654        2.8439318434      -17.8493703475
 H        -4.2444277413        1.8261536411      -19.3625751055
 H        -4.7882962322       -0.8840405830      -16.8518132321
 H        -5.3955589954       -0.0249936686      -18.3129052593
 H        -5.5506147618        0.7478710227      -16.6570413169
 H         2.5593718362       -2.7798320786      -21.1459462785
 H         2.4177852940       -1.3107351215      -22.2477834942
 H         0.9402882766       -2.0642175911      -21.4851789460
 H         3.2500028396       -2.5854406877      -19.0808467928
 H         1.6278277407       -2.4292530515      -18.6188605508
 H         2.8641017855       -1.2591021258      -18.0050255208
 H         7.3448660215        1.9300451256      -21.7995681819
 H         8.0543869824        2.1684989640      -20.2620169975
 H         7.9598659511        3.5243588973      -21.4153624129
 H         7.1733966124        5.2506968919      -20.2886488445
 H         7.1570319988        4.2390576716      -18.7667580794
 H         5.5846806585        5.0860459523      -19.2465588301
 H        -0.4633260050        5.1695938987      -24.4169933015
 H        -0.0873480740        4.7896817845      -22.8619499863
 H         0.2595919175        3.6227493442      -24.0052051799
 H         3.2043792820        4.8105388954      -25.7156207977
 H         1.5521437851        4.8263048602      -26.2035649091
 H         2.0833646008        3.4993009823      -25.2781182789
 Na       -5.7484798514       -4.2840099781       -3.9456170522
 Na        2.5420898774        2.5185686973      -21.0182381935
