232

 C         0.4230945462        7.5974264415      -23.8199628811
 C         1.5579475598        6.8806849349      -24.4486328039
 O         2.5040278723        7.4475610112      -24.9710077697
 C         1.6610292321        5.3068282543      -24.1477131657
 C         2.7622149395        4.9707812109      -23.0514023475
 O         2.3183242183        4.5363801411      -22.0446673422
 C         4.2423945799        5.3058589252      -23.3283458501
 C         5.0044915838        5.0791597207      -22.0450344524
 C         5.2626944161        3.6487474041      -21.7630091184
 O         4.9520539931        2.7524234955      -22.5237358779
 C         6.0555984831        3.3989081140      -20.4265225012
 C         5.1145649737        2.3595736601      -19.6049911871
 O         4.0874956768        2.8629124725      -19.1170016184
 C         5.5443410057        0.9194604113      -19.3712718638
 C         4.4195467244       -0.0611671200      -19.1655961780
 C         3.4938690267       -0.2218610889      -20.4062264336
 O         3.6925710540        0.3574696058      -21.4950669781
 C         2.1133595047       -1.0692963372      -20.2195874394
 C         0.9453694049       -0.0774482608      -19.8669821820
 O         0.8860090407        1.0197235356      -20.4421393420
 C        -0.1046737122       -0.5593546618      -19.0080728923
 C        -1.3920141639        0.2156855614      -19.1560625230
 C        -2.4071446935       -0.3055220533      -18.0688751255
 O        -2.5213874287       -1.4447156076      -17.7555111996
 C        -3.4148350695        0.7584012584      -17.5141348046
 C        -2.8598682622        1.1642674654      -16.1115468986
 O        -1.9533829470        1.9979725884      -16.0791709934
 C        -3.2515840275        0.2552091013      -14.9088935003
 C        -2.4492442107        0.4591634087      -13.6379378285
 C        -2.9893170379       -0.2784302765      -12.4048224833
 O        -3.9622348724       -1.0062098138      -12.4615700396
 C        -2.3034826782       -0.0296139344      -10.8938148785
 C        -3.3217673017       -0.1483135056       -9.6512969805
 O        -3.5519701423        0.7703652515       -8.8890994259
 C        -3.9410392342       -1.4925360307       -9.5085593082
 C        -5.1191852098       -1.4406002968       -8.4756575591
 C        -6.1548241955       -2.5904993011       -8.6014586975
 O        -5.8272437487       -3.6202640850       -9.0417879443
 C        -7.5869734606       -2.3388355048       -7.9377382533
 C        -7.4850965444       -3.3792784804       -6.8038452948
 O        -7.0667768652       -2.9180441439       -5.7584148559
 C        -8.0962656245       -4.7682778703       -7.0623356821
 C        -7.9178544368       -5.7790154187       -5.8871884663
 C        -8.8146668110       -5.2585837197       -4.7465943710
 O        -9.4516632173       -4.2583308287       -4.9375962090
 C        -9.0996225804       -6.0981118608       -3.4984776706
 C        -7.8437327370       -6.7177445615       -2.7988663602
 O        -6.7582915254       -6.1938502667       -2.8488981076
 C        -8.0607858457       -8.0408042218       -2.1059637190
 C        -6.7939670998       -8.7691822100       -1.6667339804
 C        -6.0283425822       -9.2254283709       -2.8713910941
 O        -6.4448529935       -9.0762187716       -3.9849304223
 C        -4.5434997314       -9.8787480415       -2.5734616890
 C        -3.5644266269       -8.7102386981       -2.9809467907
 O        -3.2932827152       -7.8376744482       -2.1247832173
 C        -2.8687413664       -8.8195248730       -4.4289321471
 C        -2.1285036888       -7.5735148697       -4.7792758200
 C        -2.8874368290       -6.2280607509       -4.5326602646
 O        -4.0480268229       -6.0461042662       -4.7600741850
 C        -2.0206212307       -4.9325875452       -4.2146221336
 C        -2.6165689459       -3.7056682993       -4.9112307670
 O        -3.7716089386       -3.4284707817       -5.0143995971
 C        -1.7090452386       -2.6991538481       -5.6487840458
 C        -2.0811972826       -1.2300191344       -5.5915044937
 C        -1.7569543817       -0.7325635493       -4.2144196041
 O        -1.0920812268       -1.3943820137       -3.4230049469
 C        -2.3452868200        0.5566773358       -3.5849904979
 C        -3.4478385879        0.0839363833       -2.4701001702
 O        -4.6304157032        0.4780311340       -2.5436249627
 C        -3.0070225859       -0.9435583088       -1.4311557093
 C        -4.1410101055       -1.1483515219       -0.4883341275
 C        -5.3176184410       -1.7833295929       -1.1825971677
 O        -5.1535598450       -2.6964695073       -1.9940367152
 C        -6.8360746272       -1.5464548321       -0.7788595873
 C        -7.7074859761       -1.8960531121       -2.0689261252
 O        -7.7849536173       -3.0473797931       -2.4102427703
 C        -8.3158580544       -0.7366546694       -2.9557717122
 C        -9.5299487406       -1.1815940646       -3.8172444439
 C       -10.5978852113       -0.1062816172       -3.7557057694
 O       -10.3832685665        0.9364779195       -3.2093904097
 C       -11.9931960642       -0.3686258422       -4.3496625872
 C       -12.1221981064        0.4540798557       -5.6895941938
 O       -11.8137346805       -0.1184720088       -6.7337273787
 C       -12.1164298977        2.0193599946       -5.5933325640
 C       -12.2874299665       -1.9110672530       -4.6575707406
 C       -13.0996866040        0.2043588697       -3.3545883625
 C        -7.0469757824       -2.6359502913        0.2671108319
 C        -7.0192279195       -0.0699762522       -0.2466125501
 C        -1.1710051115        1.4226582056       -2.8492880069
 C        -3.1024128793        1.4857224543       -4.5846883478
 C        -2.2972745229       -4.5787656453       -2.6497325749
 C        -0.4705953903       -5.1611346933       -4.2534575452
 C        -4.3296920758      -10.1828811571       -0.9914939807
 C        -4.2805115687      -11.2297193544       -3.3976826367
 C        -9.6942874464       -5.1094101335       -2.4626598889
 C       -10.2123034750       -7.0853341656       -4.0159469029
 C        -7.8022466496       -0.8651879169       -7.3990763469
 C        -8.5422354719       -2.7166225472       -9.1604844309
 C        -1.1934353799       -1.1676019391      -10.8702826594
 C        -1.5935430870        1.3875468467      -10.8477948533
 C        -3.5754439791        2.0475307559      -18.2854139342
 C        -4.8786346407        0.1846724795      -17.2966300988
 C         1.6723681114       -1.8357511442      -21.5080453260
 C         2.3306366137       -2.1005157346      -19.1091072814
 C         7.4294649431        2.7536820279      -20.7853898348
 C         6.2170642809        4.6835120425      -19.5375797007
 C         0.2993153887        4.8101092713      -23.6241190194
 C         2.1524459323        4.5778350524      -25.5204052395
 H         0.5294873265        8.6823897164      -24.0502592323
 H         0.4836382787        7.4251652027      -22.7430562881
 H        -0.5410191280        7.0644578210      -24.0840814812
 H         4.1827225472        6.3548121373      -23.6607657236
 H         4.6461860767        4.6403377417      -24.0434453484
 H         4.4783968456        5.6326927875      -21.2343713706
 H         5.9730570403        5.5266820449      -22.1210149272
 H         6.3024326881        0.8068676122      -18.6620003312
 H         6.1106148884        0.5934000637      -20.2437097458
 H         3.8057572300        0.3082539406      -18.3543628088
 H         4.9331802362       -1.0509151305      -18.8035230342
 H         0.2879546329       -0.4327786373      -17.9878080855
 H        -0.1185970355       -1.6863750277      -19.1851297345
 H        -1.8801312373        0.0269679848      -20.0633810830
 H        -1.1259945119        1.2489393655      -18.8827772418
 H        -2.9980989307       -0.6997288256      -15.3722477652
 H        -4.3396275131        0.2439064400      -14.6320802517
 H        -2.5695768572        1.4726429241      -13.3955734839
 H        -1.3704285437        0.1359945343      -13.7920105140
 H        -3.2086485182       -2.1906305545       -9.1351342486
 H        -4.3673228158       -1.7915925561      -10.5422935830
 H        -5.6600323057       -0.4339562104       -8.4432280470
 H        -4.8229829228       -1.5351731388       -7.3660339684
 H        -7.5968700830       -5.1480844446       -8.0309311579
 H        -9.1987204477       -4.6448485153       -7.4069465415
 H        -6.8480554326       -5.7597180974       -5.5173279598
 H        -8.1257099872       -6.7760890120       -6.1448472468
 H        -8.6540371336       -8.6658205812       -2.8541935600
 H        -8.7320117712       -7.7985485999       -1.1954753737
 H        -7.0201488678       -9.5574008267       -0.9199459803
 H        -6.1554869256       -8.0206283920       -1.1173388555
 H        -3.7259135325       -9.0009698575       -5.0698695896
 H        -2.2088130107       -9.6530309733       -4.5077063600
 H        -1.8934719675       -7.5641652178       -5.8560154901
 H        -1.3383633853       -7.6469830832       -4.1369872312
 H        -1.7684536399       -3.0234307728       -6.6674186568
 H        -0.5931214742       -2.8501129961       -5.4916294720
 H        -3.1913872599       -1.0931432507       -5.6942804701
 H        -1.5752085581       -0.6716510376       -6.2400792014
 H        -2.1297887258       -0.6325858459       -0.8271124227
 H        -2.8906873475       -1.8612236295       -2.0796008792
 H        -4.5678798898       -0.1862690224       -0.1127395344
 H        -3.8550263201       -1.8237394699        0.2914396484
 H        -7.4664003348       -0.2164830266       -3.4034281474
 H        -8.6506858466       -0.0072491471       -2.3191185662
 H        -9.9265391415       -2.0592369567       -3.3919913398
 H        -9.2147736854       -1.5317482182       -4.7181174480
 H       -11.1827588734        2.3072203147       -5.0043562771
 H       -12.9568751526        2.5483982320       -5.1557779696
 H       -12.0297978376        2.3609111046       -6.6136553359
 H       -11.7320427696       -2.1825077532       -5.5889435259
 H       -13.2699352715       -2.1450824157       -4.9065461676
 H       -12.0495791278       -2.5832098891       -3.8905554716
 H       -12.7437060578        1.0667306011       -2.7473578119
 H       -13.3398437728       -0.6135057021       -2.6700526664
 H       -13.9542642383        0.6547764666       -3.7745535220
 H        -8.0744786224       -2.8677477810        0.5731949964
 H        -6.4142421547       -2.3280395434        1.0775371690
 H        -6.8098467499       -3.5929538807       -0.2156459701
 H        -8.0273022436        0.0316977202        0.0611974926
 H        -6.6987938724        0.5534387181       -1.1248984953
 H        -6.2846355274        0.3217729769        0.5072101576
 H        -1.4433364740        1.3570494760       -1.8606237800
 H        -0.9607408092        2.3545855433       -3.4218014466
 H        -0.2049831265        0.8960800764       -2.9010675963
 H        -3.1230375245        2.5348667702       -4.2378070382
 H        -4.0267485669        1.1436917266       -4.9414303801
 H        -2.5767086738        1.4130639835       -5.4978189435
 H        -2.0603680018       -5.4140058707       -2.0938386281
 H        -3.3459657508       -4.4495604004       -2.4979928318
 H        -1.7595574434       -3.6942147406       -2.2966060205
 H        -0.0773556780       -5.9773417046       -3.6241967354
 H         0.0392597858       -4.2209022926       -3.9951222514
 H        -0.1146436652       -5.4080546299       -5.2622326554
 H        -3.8999884081       -9.3328428293       -0.5049444018
 H        -3.4680899758      -10.8342517781       -0.8227429279
 H        -5.1228490985      -10.6725803107       -0.5517916129
 H        -4.4886561764      -11.0433985769       -4.4912690338
 H        -4.9038275851      -12.1151368188       -3.1542650056
 H        -3.2010743902      -11.4692668775       -3.2629230786
 H        -9.5491296189       -4.1149775028       -2.8019980468
 H        -9.2894344896       -5.1746638727       -1.4761773912
 H       -10.7594026009       -5.2273196425       -2.3279675473
 H       -11.0123496097       -6.5434193469       -4.5493983179
 H       -10.6195726945       -7.5175295851       -3.1219767990
 H        -9.7443164129       -7.8799164345       -4.6729531204
 H        -7.7447688094        0.0172708626       -8.0939804318
 H        -7.0601661790       -0.5219316253       -6.6484809774
 H        -8.7215552867       -0.8308420320       -6.8721510739
 H        -8.0053616748       -3.5947776943       -9.5944930406
 H        -8.5039115487       -1.8963283490       -9.8595271448
 H        -9.5924486350       -2.6738605050       -8.8299548778
 H        -0.7964037207       -1.0669519505       -9.8630008942
 H        -0.4893675275       -0.8551560277      -11.7072151362
 H        -1.6049749488       -2.0528670757      -11.0885410062
 H        -2.3239638116        2.1484298468      -10.8486545428
 H        -0.6472058546        1.5188323003      -11.4849897472
 H        -1.1573515194        1.3836266025       -9.9072024446
 H        -2.6783155337        2.7552576385      -17.9738620537
 H        -4.5667589895        2.4828731874      -18.0888610858
 H        -3.5647352617        1.8179208735      -19.3273931338
 H        -4.8561692373       -0.8813942492      -16.9680797012
 H        -5.3040014862        0.1643506183      -18.3353814628
 H        -5.4728901792        0.7763823907      -16.5524418589
 H         2.4539533431       -2.4078559983      -21.8518981243
 H         1.3071938193       -1.1247889595      -22.2284954681
 H         0.8507258446       -2.5212168781      -21.2422145507
 H         3.3344922298       -2.5376209751      -19.1566468548
 H         1.6550618572       -2.9206374582      -19.2515715065
 H         2.2093694717       -1.6777332932      -18.1111639174
 H         7.3325845144        1.7795808580      -21.3529976101
 H         7.9122524301        2.4198205679      -19.8262621687
 H         8.1243011576        3.4998307372      -21.2979626012
 H         6.8459659014        5.3557097564      -20.1420929985
 H         6.8110350537        4.3479679192      -18.6562651016
 H         5.2831238104        5.0430810725      -19.1751410214
 H        -0.5106740298        4.7076279787      -24.3705063012
 H        -0.2386090309        5.3937783194      -22.8767613895
 H         0.4147941454        3.7928605940      -23.1705525847
 H         2.9103807065        5.2610506163      -26.0528029574
 H         1.3669740887        4.5393994817      -26.2694724027
 H         2.5388115338        3.6188460926      -25.4322436334
 Na       -6.0531905462       -4.0331225253       -3.8191805415
 Na        2.8215991082        2.5850717678      -21.0006875048
