232

 C         0.3283776719        7.7186645081      -23.6788587693
 C         1.5329841749        6.8952712329      -24.3808095595
 O         2.3771845530        7.4880784007      -24.9742554776
 C         1.5396003335        5.2973025784      -24.1838883234
 C         2.6460887990        5.0917583025      -23.1153390421
 O         2.4538610047        4.6603765221      -22.0145596002
 C         4.1236078963        5.2695525731      -23.4893701814
 C         4.9456114844        5.1924578769      -22.1163412769
 C         5.4153204778        3.7629967701      -21.7980105984
 O         5.0738140823        2.7528501349      -22.4703712490
 C         6.1374910566        3.2655438884      -20.3375976818
 C         5.1625786893        2.3722525255      -19.5726996547
 O         4.1982387407        2.8787763895      -19.0101703437
 C         5.4278896043        0.8718697566      -19.4362980270
 C         4.1832762020       -0.0896536974      -19.1002429289
 C         3.3260407400       -0.2721134524      -20.2918851798
 O         3.6343817881        0.4146250869      -21.2791833052
 C         2.1174306244       -1.1885474524      -20.2572732691
 C         0.9275940031       -0.1514877249      -19.9159901231
 O         0.9287409640        0.9222789560      -20.4963435984
 C        -0.1695639303       -0.5802381556      -18.8938709225
 C        -1.4651651788        0.2487273768      -19.0495256613
 C        -2.5529768623       -0.3023033362      -18.0960100277
 O        -2.4000099546       -1.4250532224      -17.7600256393
 C        -3.4934425215        0.7811188542      -17.4884693707
 C        -2.7234940603        1.0146451812      -16.1027273931
 O        -1.8644553725        1.8813524267      -16.0308880161
 C        -3.1779005596        0.2463176520      -14.8430678114
 C        -2.4450689652        0.5845620365      -13.5276932636
 C        -3.0734631365       -0.1797140350      -12.2742429515
 O        -3.9163266978       -1.0303401551      -12.3968230783
 C        -2.2776401475       -0.0182625689      -10.9311219050
 C        -3.2678626637       -0.1865795631       -9.7383290854
 O        -3.3150226647        0.7468084404       -8.9852992410
 C        -3.8926291295       -1.5913112108       -9.4097425986
 C        -5.0363331173       -1.4634572362       -8.4478001759
 C        -6.0802576364       -2.6045661965       -8.5392485567
 O        -5.9377326041       -3.7066622547       -9.0761859788
 C        -7.5848318710       -2.3997934641       -7.9960829850
 C        -7.5961579582       -3.3782339372       -6.8223051741
 O        -6.9333305551       -3.1377890207       -5.8089030593
 C        -7.9952150052       -4.8132386349       -7.0682838716
 C        -7.8165038525       -5.6597738223       -5.8289604711
 C        -8.8734001263       -5.1218032785       -4.7604078752
 O        -9.4844519917       -4.1144897278       -4.9627997832
 C        -9.0781871865       -6.0246174471       -3.4630377367
 C        -7.7547849542       -6.7344473513       -2.9082505558
 O        -6.7385695029       -6.1354313071       -2.8369967130
 C        -8.0348171759       -8.1060470152       -2.2262318259
 C        -6.7634574407       -8.8069222486       -1.6787262879
 C        -5.9082753128       -9.2434562982       -2.8403154894
 O        -6.2768274723       -9.0722730262       -3.9912174985
 C        -4.4812066270       -9.8283661299       -2.5932160851
 C        -3.5783066563       -8.7393749409       -3.0912213390
 O        -3.3792095564       -7.7724783664       -2.4001431409
 C        -3.0201236932       -8.7031046124       -4.4616181007
 C        -2.1898024901       -7.4114637267       -4.7789945788
 C        -2.9304964164       -6.0248766431       -4.5633723112
 O        -4.1427648299       -6.0054116010       -4.7358789064
 C        -2.0044394150       -4.8390133829       -4.1482392989
 C        -2.6346579573       -3.6164161509       -4.9005367659
 O        -3.8186053453       -3.3848010480       -4.8758098550
 C        -1.6176488645       -2.6629568084       -5.8070104168
 C        -2.2487681195       -1.2445990758       -5.5520934514
 C        -1.8036099670       -0.7429206795       -4.0983823736
 O        -1.0136796635       -1.4534413310       -3.5230483716
 C        -2.3764723783        0.5977962316       -3.5450947276
 C        -3.3644223422        0.1245341078       -2.5187992762
 O        -4.5356033685        0.4946403337       -2.5471144921
 C        -2.9514930753       -0.8511915588       -1.4009643419
 C        -4.1562586639       -1.0611239385       -0.4976334380
 C        -5.2437994937       -1.9012746136       -1.1937459985
 O        -4.9203265933       -2.8282090047       -1.9463326100
 C        -6.7159177686       -1.6091539330       -0.8398610314
 C        -7.6136491528       -1.8840287096       -2.0680891223
 O        -7.9204100655       -3.0495688678       -2.2754910663
 C        -8.2379055526       -0.7933792211       -2.8835150114
 C        -9.3984708778       -1.2737877280       -3.7001905931
 C       -10.4985822571       -0.2385879894       -3.7337180521
 O       -10.3197451282        0.8505295683       -3.1221777002
 C       -11.9757802131       -0.3974720468       -4.4196019327
 C       -11.9739863463        0.5646115665       -5.7252665133
 O       -11.9661783214        0.0374793659       -6.7902578512
 C       -12.2337636851        1.9986776158       -5.4801161679
 C       -12.2373085679       -1.8797686068       -4.6947370846
 C       -13.0740899748        0.0958102420       -3.3786071505
 C        -7.1061410934       -2.6548861616        0.3329016547
 C        -6.9873266057       -0.1229003154       -0.3550572419
 C        -1.2366797315        1.4812079844       -2.9514167377
 C        -3.1571022461        1.4115307150       -4.6247004274
 C        -2.3976786045       -4.6626728696       -2.6017523217
 C        -0.5161308630       -5.0630563810       -4.4490764207
 C        -4.3046300078      -10.2731093041       -1.1477253323
 C        -4.2331251531      -11.0494546614       -3.4747780459
 C        -9.7346779591       -5.1611824529       -2.2887057861
 C       -10.0910193373       -7.1088922352       -3.8906124035
 C        -7.9440540942       -1.0815126145       -7.4410837172
 C        -8.6039766111       -2.6325968345       -9.1701422935
 C        -1.1863095059       -1.0406286324      -10.9227206941
 C        -1.6929148978        1.4403422018      -10.7743844172
 C        -3.4832242465        2.1213306317      -18.3198746468
 C        -4.9236010727        0.0675390521      -17.3734438261
 C         1.7019115934       -1.6748037973      -21.6417342281
 C         2.2300088314       -2.2960179964      -19.1550296699
 C         7.6230285061        2.8761293116      -20.7244598417
 C         6.1045631755        4.5451607811      -19.4493610628
 C         0.2372000382        4.6623628358      -23.8262179112
 C         1.9320987426        4.6464851301      -25.5195565620
 H         0.4110097504        8.8255833801      -23.8968665135
 H         0.2203811095        7.5074098963      -22.5864969170
 H        -0.5357299068        7.1918933559      -24.0575217588
 H         4.1418456334        6.1601270641      -23.9885711414
 H         4.4795246311        4.4539910773      -24.0528916807
 H         4.3337572220        5.5138333613      -21.3174996062
 H         5.7975760840        5.8448469846      -22.1183610760
 H         6.1786425728        0.7148844976      -18.5578836413
 H         6.0432759473        0.4535784012      -20.2012205866
 H         3.6795383661        0.2304209141      -18.1903755009
 H         4.7439659031       -1.1386219814      -18.8535065980
 H         0.2676789405       -0.4539813210      -17.8845440687
 H        -0.3320629633       -1.6992277215      -19.0278304207
 H        -1.8964765062        0.0426965121      -19.9989297169
 H        -1.2011464177        1.3240296914      -18.8211323311
 H        -3.2766943455       -0.8456038469      -15.0943668345
 H        -4.1850088343        0.6357795264      -14.6745511767
 H        -2.4578171059        1.6463652888      -13.4402312681
 H        -1.4510316446        0.1536983162      -13.5577730962
 H        -3.1305384309       -2.3033846226       -8.8914510717
 H        -4.3014628062       -2.0000889022      -10.2779541626
 H        -5.6076496413       -0.5503189106       -8.4942675628
 H        -4.7010119404       -1.5033503149       -7.3441093728
 H        -7.3763789051       -5.2050225925       -7.9363867355
 H        -9.0399908083       -4.9074303115       -7.4507105358
 H        -6.7947899511       -5.5681028221       -5.4611492841
 H        -7.9784598353       -6.7123024808       -6.0470708535
 H        -8.3562715824       -8.7724603986       -3.0733910965
 H        -8.9436036793       -7.8665851039       -1.5556818885
 H        -7.0319485890       -9.7374681210       -1.1402304136
 H        -6.1934451461       -8.2130592800       -0.9842048341
 H        -3.8905279169       -8.8205827178       -5.0891829487
 H        -2.4024226765       -9.5499798148       -4.6662148413
 H        -1.8874946910       -7.5190097465       -5.8595657152
 H        -1.3711556972       -7.5624290310       -4.0062630917
 H        -1.5204699819       -2.9330168234       -6.8557864732
 H        -0.5913275226       -2.6645068823       -5.4914110059
 H        -3.3045540060       -1.2015635398       -5.7218458735
 H        -1.7411151902       -0.4756912757       -6.1838892733
 H        -2.0892017242       -0.5144341790       -0.7897087064
 H        -2.8433158933       -1.8435087132       -1.8669955830
 H        -4.6862753080       -0.1638698733       -0.2930716112
 H        -3.8596955635       -1.6126737993        0.4367050882
 H        -7.3554003729       -0.3668130876       -3.3855986631
 H        -8.5411757804        0.0482344813       -2.2638291380
 H        -9.7474821691       -2.2480044719       -3.4166587512
 H        -8.9931489746       -1.4619800032       -4.7169803553
 H       -11.6696217897        2.5060385556       -4.6608936828
 H       -13.3557364221        2.1643421421       -5.2319719948
 H       -12.1218304651        2.4910066830       -6.4135478323
 H       -11.6929887284       -2.1872873076       -5.5054599143
 H       -13.2662649469       -2.1793078892       -4.9937681435
 H       -12.0122971158       -2.5074680240       -3.8020098201
 H       -12.6809383452        0.9002177975       -2.6873941741
 H       -13.5266248880       -0.6980420182       -2.7668365152
 H       -13.8737666231        0.6903345834       -3.8252137177
 H        -8.1311501566       -2.9441761098        0.4128402935
 H        -6.7094450082       -2.1873780759        1.2541829582
 H        -6.6366109548       -3.5594026707        0.0683240791
 H        -8.0655224081       -0.0187282735       -0.4705613481
 H        -6.2680165806        0.6513198186       -0.7551077067
 H        -6.8142982239       -0.0193825616        0.7208191326
 H        -1.4114066522        1.5289670076       -1.8831607294
 H        -1.0918582335        2.3059503376       -3.5330878047
 H        -0.3143078205        0.9338536210       -3.0807248023
 H        -3.4123044820        2.4184184297       -4.2520727803
 H        -4.0280683521        0.8553802913       -5.0681091634
 H        -2.5927580577        1.4064245111       -5.5755423248
 H        -2.2858244757       -5.6262136122       -2.0377908383
 H        -3.4198081558       -4.4370723183       -2.5684381761
 H        -1.8738864872       -3.8014616937       -2.1403191205
 H        -0.0697054344       -5.8175373985       -3.8394077103
 H         0.1248654002       -4.1690051081       -4.3848462942
 H        -0.4247212856       -5.4125301965       -5.4387225359
 H        -4.1275622987       -9.3639396795       -0.5949673038
 H        -3.3559412134      -10.7534414347       -0.9078022862
 H        -5.0944504418      -10.9463249799       -0.8258468322
 H        -4.4256007995      -10.9131586481       -4.5614197060
 H        -4.7923091909      -11.9618484380       -3.1973414313
 H        -3.1626496818      -11.2156244556       -3.3137422913
 H        -9.9503621767       -4.0993810231       -2.4997803371
 H        -9.2015684407       -5.1919455548       -1.3185217335
 H       -10.6787319355       -5.6053971638       -2.0247463678
 H       -10.9496119932       -6.5063279200       -4.3669492284
 H       -10.5272166360       -7.6774329789       -2.9632342237
 H        -9.6479813236       -7.7835240987       -4.6270521724
 H        -8.2548712924       -0.1918020737       -8.0743065148
 H        -7.0766823074       -0.5606481237       -6.9155620863
 H        -8.7018835738       -1.2370042866       -6.5937681007
 H        -8.3788756097       -3.6106442920       -9.6231724335
 H        -8.3889782626       -1.8564735015       -9.9460409388
 H        -9.5338235318       -2.2939478453       -8.7771476327
 H        -1.1446535719       -1.1515323762       -9.8736837940
 H        -0.3135132657       -0.6204603293      -11.4347429541
 H        -1.5308328564       -1.9801290307      -11.4462989099
 H        -2.4818039267        2.1508187511      -10.6673157456
 H        -0.9411227811        1.6217321017      -11.5414267378
 H        -1.0798107021        1.3747937978       -9.8530388508
 H        -2.5710922440        2.6289555792      -17.9517307782
 H        -4.3859490486        2.7072670666      -18.2705497296
 H        -3.4408121087        1.8386431649      -19.3727351106
 H        -4.8507488825       -0.8472231756      -16.8409633354
 H        -5.2342890535       -0.2070566646      -18.3971406412
 H        -5.6398220598        0.7292206926      -16.8509932828
 H         2.5228521507       -2.1243547097      -22.2253651132
 H         1.2138642339       -0.8126320715      -22.1411447129
 H         0.9780865770       -2.3874759882      -21.5135828243
 H         3.0918435305       -2.9778523287      -19.2801274289
 H         1.3286121889       -2.8755558615      -19.1531929880
 H         2.3118032885       -1.8191913423      -18.1713187872
 H         7.7366336726        2.0392246457      -21.3743785310
 H         8.0688537360        2.5631710893      -19.8155674633
 H         8.1974378529        3.7822416834      -21.0422502178
 H         6.7266559243        5.1763412005      -20.0491511447
 H         6.5636245043        4.3229739770      -18.5165526048
 H         5.1013264702        4.8186770237      -19.2363855179
 H        -0.6755895713        4.8025338763      -24.5200111391
 H        -0.1963338252        5.0156707523      -22.8985659426
 H         0.3614382457        3.6209336699      -23.7039470656
 H         2.4933307478        5.2902618852      -26.2468832309
 H         1.0400995717        4.4150883088      -26.0978494972
 H         2.4784882005        3.6735036643      -25.3867762819
 Na       -6.1468438016       -3.9883018995       -3.7883338244
 Na        2.8552722792        2.4488438442      -21.0575810349
