232

 C         0.2395118030        7.6474342425      -23.5312686825
 C         1.3153437838        6.8843293530      -24.2441380023
 O         2.1615676001        7.4563016189      -24.8966612278
 C         1.4657019205        5.2618809824      -24.1685601507
 C         2.5493767439        4.9165456111      -23.1327091054
 O         2.1182215895        4.5440270920      -21.9957219544
 C         4.0107908548        5.1394505923      -23.3723960247
 C         5.1394257586        5.1485494718      -22.3360235272
 C         5.3803727830        3.7107688751      -21.6801099317
 O         5.1978983722        2.7782866400      -22.3584924708
 C         6.0621804283        3.4248781815      -20.2098850985
 C         5.2078636749        2.2892708185      -19.5529895364
 O         4.0668123339        2.5966006025      -19.1342086100
 C         5.5554869799        0.8384385436      -19.4500721731
 C         4.2997284710        0.0446739539      -19.0769611843
 C         3.3830517564       -0.3146193069      -20.2036114395
 O         3.5593554796        0.3363264707      -21.2270335868
 C         2.1310458729       -1.2623777604      -20.2650328216
 C         0.9121530619       -0.1610753186      -19.9531778453
 O         0.8891542773        0.9960670309      -20.3930834543
 C        -0.1927675161       -0.6670816450      -18.9720570283
 C        -1.3854936192        0.2367585047      -18.8941177916
 C        -2.4257673352       -0.2045397574      -17.9332309534
 O        -2.4558037726       -1.4239501836      -17.7785323306
 C        -3.5238976106        0.8515546324      -17.3259390195
 C        -2.7996754940        0.9514214613      -16.0073743191
 O        -1.7267495821        1.5155603518      -15.9184008923
 C        -3.3649455244        0.2523770675      -14.8175276592
 C        -2.6121210160        0.7210311416      -13.5243447002
 C        -2.9847910393       -0.1010034421      -12.2975483972
 O        -3.9076963019       -0.9062890725      -12.3888430167
 C        -2.1971995065        0.0049129806      -10.8998993368
 C        -3.1372574188       -0.3080639669       -9.5425073780
 O        -3.3565316315        0.5551553500       -8.7100454611
 C        -3.8203180151       -1.6197572205       -9.4846266788
 C        -5.0262715114       -1.4222579732       -8.4974828328
 C        -6.1520600619       -2.5470580327       -8.7560219188
 O        -5.8123101259       -3.5726300915       -9.2350953549
 C        -7.5128490980       -2.4723260741       -8.0751508537
 C        -7.4145533735       -3.5034430553       -6.8386997085
 O        -6.8041113989       -3.1380479912       -5.8755785794
 C        -7.8235673928       -4.9401975193       -6.9744782694
 C        -7.9589628221       -5.8014202376       -5.6715870989
 C        -8.9443283660       -5.1602510037       -4.6451258342
 O        -9.4849106889       -4.0750615614       -4.7310739754
 C        -9.1743181567       -6.0560359964       -3.3881672346
 C        -7.8497489843       -6.6872893899       -2.8672400993
 O        -6.7706003581       -6.0979697490       -2.8617982871
 C        -7.8773334833       -8.1552065356       -2.3373082879
 C        -6.6144942925       -8.7330178860       -1.8741974768
 C        -5.7803599036       -9.2461672248       -3.1053212867
 O        -6.1481215143       -9.1552503883       -4.2576955055
 C        -4.3948095076       -9.7725263891       -2.6911476411
 C        -3.5453449411       -8.6222762199       -3.2049625422
 O        -3.4190750625       -7.6856636739       -2.4141969279
 C        -3.3133732516       -8.4050407403       -4.6764589870
 C        -2.3936308514       -7.2114533148       -4.9556554492
 C        -3.0784300854       -5.9711008264       -4.6820371370
 O        -4.2709418152       -5.8987689688       -4.6652153237
 C        -2.1326636162       -4.7044508780       -4.1935955708
 C        -2.8814130511       -3.4038679812       -4.8644546301
 O        -4.0379587172       -3.0543077276       -4.5925095041
 C        -2.0855600348       -2.7039224881       -5.8714675470
 C        -2.1983839135       -1.2471660671       -5.6629441347
 C        -1.8128759408       -0.7721182492       -4.2630953452
 O        -0.9040929980       -1.3028534826       -3.6356294061
 C        -2.4295972469        0.5795341195       -3.6454379210
 C        -3.3915960836        0.1703218263       -2.4680673135
 O        -4.5573661909        0.5290398727       -2.5624102237
 C        -2.8676613424       -0.5917366344       -1.2683502825
 C        -3.9136749553       -1.1930917007       -0.3277451026
 C        -5.1028113872       -1.9538648473       -1.0452472457
 O        -4.8597609842       -2.7780041432       -1.8680344481
 C        -6.6614842727       -1.6601681752       -0.6892557661
 C        -7.5206465909       -2.0658476328       -2.0709278213
 O        -7.8124670537       -3.2291426825       -2.2815765085
 C        -8.0933265220       -0.9229144377       -3.0364595005
 C        -9.4141630859       -1.2432936141       -3.7631530221
 C       -10.4691543726       -0.0961838743       -3.6962999941
 O       -10.3206753674        0.8189314400       -2.9865074336
 C       -11.8954265173       -0.4399722537       -4.4438380724
 C       -12.0520501118        0.5682745033       -5.5513528486
 O       -11.9402926083        0.1614231410       -6.7201226079
 C       -12.3876110287        2.0471856024       -5.2680146836
 C       -11.9781178889       -1.9129265003       -5.0282952085
 C       -12.9639899360       -0.1025508852       -3.3135093949
 C        -7.1005659968       -2.6563997972        0.3759954446
 C        -6.8514882287       -0.1604264789       -0.2759989798
 C        -1.2149982151        1.5368628232       -3.0069615845
 C        -3.1948960850        1.4227625476       -4.7811353265
 C        -2.2138046296       -4.6693906905       -2.6441939593
 C        -0.6025535316       -4.8974810106       -4.5470569477
 C        -4.0281666072      -10.2230122728       -1.3137811759
 C        -4.2393304474      -11.0704559485       -3.6731199389
 C        -9.8007344516       -5.3927587722       -2.1457848513
 C       -10.1924582184       -7.0468083613       -4.0010791390
 C        -7.8237454503       -1.1176433375       -7.4214069613
 C        -8.6908724376       -2.8815235626       -9.0675915344
 C        -0.9604839501       -1.0132069926      -10.9555756620
 C        -1.6966383915        1.4674521634      -10.8097196789
 C        -3.6587312571        2.1202900142      -18.1602105765
 C        -4.9020522441        0.0429523125      -17.3368625150
 C         1.9544088573       -1.6621906162      -21.7507856009
 C         2.0452696462       -2.5998724484      -19.5052048461
 C         7.4755758648        2.9136458052      -20.4786486679
 C         6.2013720782        4.7607188354      -19.3574282330
 C         0.1185132111        4.6531169446      -23.7217022422
 C         1.9086628902        4.9442845894      -25.6913158532
 H         0.5533256975        8.6545387390      -23.4811896869
 H         0.1831997464        7.2237128532      -22.5730359380
 H        -0.7452659331        7.4865167541      -23.9578977110
 H         4.1112255170        6.1424117897      -24.0345821255
 H         4.3360523834        4.2129666178      -23.9956615711
 H         4.9360131031        6.0098852483      -21.6186173472
 H         6.0107288710        5.5142034676      -22.9094570367
 H         6.3380805644        0.6183948497      -18.7873910973
 H         6.0094482093        0.4726103165      -20.4462657784
 H         3.7689084252        0.6892919550      -18.3626356969
 H         4.6094931820       -0.7811492337      -18.4938537593
 H         0.3198788688       -0.6921273403      -18.0095848039
 H        -0.4636801430       -1.6440448724      -19.2570386286
 H        -1.9114242349        0.1787176383      -19.9082173455
 H        -1.1290977538        1.2145269062      -18.5761068808
 H        -3.3267968108       -0.7946970634      -14.9947445182
 H        -4.4267032544        0.5313838704      -14.7864447709
 H        -2.9775066729        1.7280670992      -13.2043460550
 H        -1.5183735643        0.7750671475      -13.7634345137
 H        -3.1552471745       -2.2803504532       -9.0676044735
 H        -4.2242073348       -1.9511252348      -10.5086522827
 H        -5.5454855049       -0.4535130951       -8.6476222159
 H        -4.6281329809       -1.4764162634       -7.5503402942
 H        -7.0566723930       -5.3585949639       -7.5685230971
 H        -8.7528972047       -5.0147862997       -7.4835004995
 H        -6.9561313056       -5.8120979103       -5.1993320544
 H        -8.2145088212       -6.8559278635       -5.8672381622
 H        -8.2466678618       -8.8021836989       -3.0730459043
 H        -8.5860715494       -8.0475445910       -1.6063670585
 H        -6.7865160317       -9.5204240806       -1.1663324550
 H        -6.0610284845       -7.9385133561       -1.3523340199
 H        -4.3110467910       -8.1801736199       -5.1647164437
 H        -2.9968383462       -9.3666420947       -5.1820499630
 H        -2.2369541950       -7.2552442014       -6.0360849686
 H        -1.5178899076       -7.2420600317       -4.3707263611
 H        -2.4951668677       -2.8922452378       -6.8745692688
 H        -1.0483944278       -3.1246147885       -5.9039348118
 H        -3.3072040458       -0.9316188188       -5.6901069408
 H        -1.7034866456       -0.6905348929       -6.4305893283
 H        -2.3897741651        0.2167256298       -0.7298720639
 H        -2.1607211315       -1.3896255570       -1.5248801749
 H        -4.3660076990       -0.4463078168        0.3709108489
 H        -3.4624871140       -1.9610361730        0.2433826394
 H        -7.2183938092       -0.7266734107       -3.7028302607
 H        -8.1670755622        0.0491841417       -2.4632549559
 H        -9.9437005211       -2.1681007290       -3.2895030371
 H        -9.1794698619       -1.6049098833       -4.7879781566
 H       -12.2171551056        2.2817369604       -4.2196038918
 H       -13.3818286678        2.2861320735       -5.4238856856
 H       -11.8443583622        2.7780798112       -5.9066449041
 H       -11.1489068186       -2.3039601780       -5.7658144292
 H       -12.8057282501       -1.9410621167       -5.7240374018
 H       -12.2447033876       -2.6225343615       -4.2628919369
 H       -13.0143265034        0.8743095495       -2.8661124634
 H       -12.8738265262       -0.8646149980       -2.5268808561
 H       -13.9811224128       -0.2915613657       -3.6956724188
 H        -8.1861252907       -2.4308292936        0.5464893900
 H        -6.6371765196       -2.4330001544        1.3105811900
 H        -6.9839301417       -3.7254489902        0.0148698096
 H        -7.7480110238        0.0113075497        0.2602758949
 H        -6.5804391659        0.4522454828       -1.0893491713
 H        -6.0506290620        0.0636601193        0.4209881385
 H        -1.6164401059        2.1691572075       -2.2165898084
 H        -0.7354473026        2.1302157720       -3.8860624621
 H        -0.4264663652        0.8770783078       -2.6324660847
 H        -3.7899929491        2.1952801838       -4.2663106318
 H        -3.8173327155        0.7896625718       -5.3719143963
 H        -2.5887281267        1.7980147536       -5.5922193838
 H        -1.7632543713       -5.6038323948       -2.3353909866
 H        -3.2405255782       -4.6200254598       -2.1508876051
 H        -1.6557651707       -3.7816154610       -2.2425016070
 H        -0.3590268427       -5.8389154207       -4.0546693906
 H         0.0091841372       -4.1812744143       -4.0580320618
 H        -0.2637444305       -4.9492224286       -5.6080127136
 H        -4.2747140004       -9.4750303847       -0.5270745126
 H        -2.9191586592      -10.2920022957       -1.2268382295
 H        -4.4006605909      -11.2412854182       -1.1338113874
 H        -4.6843766325      -10.9479822044       -4.6280256778
 H        -4.7990642598      -11.8211971136       -3.1890515281
 H        -3.2313597056      -11.4134131467       -3.8004359954
 H       -10.7650266768       -4.9728247365       -2.5026926517
 H        -9.2844178312       -4.5357139380       -1.7173838005
 H       -10.0742425648       -6.0458605574       -1.2649610631
 H       -10.9818655497       -6.4608099974       -4.3597355108
 H       -10.5115027062       -7.7289099148       -3.2988010223
 H        -9.7235883181       -7.6077745104       -4.8420814308
 H        -7.6240995404       -0.3329096702       -8.1186299630
 H        -7.1864692203       -0.7911032890       -6.6443650198
 H        -8.7913282100       -1.0052551246       -7.0762994567
 H        -8.4587451563       -3.8593025565       -9.4078431113
 H        -8.6847801233       -2.2749305581       -9.9155241158
 H        -9.5661316436       -2.6746925872       -8.4459223484
 H        -0.5019762072       -1.1447812199       -9.9407576152
 H        -0.4681921025       -0.4794103114      -11.7576684680
 H        -1.2635349187       -1.8976870934      -11.3722524296
 H        -2.5232504603        2.1924853626      -10.9653099022
 H        -1.0029839914        1.4846978040      -11.7222785267
 H        -1.1600766806        1.6539827495       -9.9088458670
 H        -2.6460672137        2.6604249317      -18.0941242661
 H        -4.3596826180        2.8329683636      -17.6531021970
 H        -4.1415738681        1.9915277344      -19.1009845490
 H        -4.6947536856       -0.8960409380      -16.7599152376
 H        -5.1434726837       -0.2499432924      -18.3473800526
 H        -5.6411864398        0.6781659597      -16.8693880187
 H         2.7853743779       -2.2760083330      -22.0569773189
 H         1.8723379507       -0.7287225746      -22.2997193966
 H         0.9642426617       -2.2561942909      -21.9309926995
 H         2.6485187200       -3.3620222275      -19.9768093151
 H         0.9873099209       -2.9101519231      -19.4494805712
 H         2.3436812243       -2.4881248249      -18.4596490165
 H         7.4287878887        2.1596866073      -21.2295031337
 H         8.0548373942        2.5880200035      -19.6388542715
 H         8.0025709317        3.7322924038      -20.8982597924
 H         6.9441983815        5.3344655715      -19.9203150793
 H         6.6633692066        4.3747745053      -18.4261525839
 H         5.2074940413        5.1131280344      -19.1070548481
 H        -0.7259940809        5.1593102496      -24.0325184881
 H        -0.0354978779        4.5463248158      -22.6668253116
 H        -0.0782661945        3.6663670724      -24.1640246668
 H         2.8189410270        5.4512903239      -26.0457979353
 H         1.1893575261        5.1672127792      -26.4924006355
 H         2.1653003689        3.9269792981      -25.7303876910
 Na       -5.8950535885       -4.0410477114       -3.6901580029
 Na        2.7042198321        2.4737028653      -21.2690148525
