232

 C       -15.1331191922      -14.0582009761       -0.3998789614
 C       -15.2677028984      -14.1099844543       -1.9129680996
 O       -15.3071371795      -13.1166038721       -2.6036367255
 C       -15.3999592232      -15.5352748149       -2.5653734219
 C       -15.0624467627      -15.3897780513       -4.1634489047
 O       -15.9062938488      -14.9684027451       -4.8659518679
 C       -13.7290289421      -15.6833697896       -4.8067156325
 C       -13.8314076989      -15.7222433581       -6.3235961364
 C       -14.1043213212      -14.2278126966       -6.8178426413
 O       -13.7556166302      -13.3218426673       -6.0805641913
 C       -14.7912912290      -13.8367817045       -8.1537439856
 C       -15.4350281137      -12.4718183876       -8.0050226790
 O       -16.5665123439      -12.3666149377       -7.6196723826
 C       -14.5308693239      -11.2182317187       -8.2577791609
 C       -15.2518194766       -9.9135554598       -7.7694249480
 C       -15.2900904670       -9.7262188048       -6.2012003287
 O       -15.4221206423      -10.6209523141       -5.3538792462
 C       -15.1134813396       -8.2971361776       -5.7418763515
 C       -13.5047170328       -7.8344156973       -5.9183933599
 O       -12.7435724766       -8.5237843744       -6.5685917685
 C       -13.0091646503       -6.4586073107       -5.2706891116
 C       -12.8243204385       -5.5169595908       -6.5093261846
 C       -13.2272239518       -4.0820664306       -6.2088914045
 O       -14.1654070866       -3.9061833911       -5.5036961352
 C       -12.6329869879       -2.8639590749       -7.1001846792
 C       -11.0441578622       -2.8400231182       -7.0603506899
 O       -10.5364882860       -3.7523445873       -6.5048058562
 C       -10.2168978663       -1.8548253721       -7.8366215017
 C        -9.3710267832       -0.9942221134       -6.8108336618
 C        -9.9940180274        0.4154757440       -6.6250758786
 O       -10.8102971211        0.8207637745       -7.4364002002
 C        -9.4373594096        1.3314721631       -5.4816310165
 C        -7.8581560052        1.3350194125       -5.6808162748
 O        -7.2434660763        0.2911023427       -5.6343431741
 C        -7.2026885140        2.7652740995       -5.8960789072
 C        -6.5029622286        2.6116834555       -7.3259139130
 C        -6.0462483622        3.9622640962       -7.9788452989
 O        -6.0215865199        5.0581949094       -7.5032046321
 C        -5.7606115719        3.8907994679       -9.5599363324
 C        -4.6623538804        2.6498401612       -9.6473483351
 O        -5.0516647678        1.5150405249       -9.8026407909
 C        -3.1039403938        3.0529702364       -9.6158441066
 C        -2.2965758378        1.8464953623      -10.0125897879
 C        -0.7360537012        1.9813305792      -10.1415123687
 O        -0.2195184620        2.5884502697      -11.0550970614
 C         0.3070631479        1.3922217323       -9.0353940669
 C         1.6005112550        2.1074596384       -9.3450523189
 O         2.5802375324        1.4463699702       -9.4599169453
 C         1.7639654120        3.6523427303       -9.3223014074
 C         2.7029592738        4.0015258788      -10.4732624359
 C         2.3948363551        5.4606543277      -11.0085586279
 O         1.4759960905        6.0023743048      -10.4914357557
 C         3.4088221427        6.1437796705      -11.9454264822
 C         3.4948874729        5.2623591198      -13.3057185113
 O         4.5596320864        4.6779551288      -13.5150134681
 C         2.2872807994        5.1586660807      -14.2058159069
 C         2.4529191623        5.6346199671      -15.6453065199
 C         3.2469902519        4.6531272609      -16.6160217403
 O         3.5594884880        3.4869499571      -16.2441607726
 C         3.5179092636        5.1278482427      -18.0337874007
 C         5.0532609465        5.0491809764      -18.2446136038
 O         5.5739074023        4.4611853244      -19.1840399918
 C         5.8335822203        5.8211275996      -17.1875649180
 C         7.3585104387        5.7007732630      -17.4626000574
 C         7.9028279134        4.3488730179      -17.1537710508
 O         7.3274961266        3.4974054031      -16.4675747794
 C         9.3174005399        3.8873032453      -17.7086953314
 C        10.2658353972        3.9197894501      -16.4019112780
 O        10.1291380564        4.8085112392      -15.5690791948
 C        11.5226748293        3.1696122467      -16.5837409383
 C        12.2481999818        2.9473773969      -15.3108851673
 C        11.5140375473        1.8653871691      -14.2994172826
 O        10.5538523698        1.3049751893      -14.7515468517
 C        12.0879240960        1.6199647946      -12.8369456604
 C        11.0199821635        1.0008132598      -11.9389707734
 O        11.2940623920        0.0507206104      -11.1960311638
 C         9.6153862743        1.5679197580      -12.0370426553
 C         8.5739057312        0.4289270625      -12.4436042845
 C         7.2409897557        0.9234182232      -13.1383846742
 O         7.0790087481        2.0595930947      -13.4703298623
 C         6.0523432760       -0.1367792757      -13.4521429770
 C         6.2402712794       -0.4041525068      -14.9733567980
 O         6.1953156460        0.6204081112      -15.6965665324
 C         6.4695125061       -1.7613271779      -15.6524011879
 C         6.2146202638       -1.3328731723      -12.5335537753
 C         4.6962483876        0.5481983887      -12.9834574523
 C        13.3650483094        0.7723104777      -12.8519261754
 C        12.4604039707        3.0397810072      -12.1782525394
 C         9.0701295233        2.3206217488      -18.1195331644
 C         9.9340407283        4.6875218733      -18.8091314376
 C         2.6633602572        4.0876025350      -18.9856637640
 C         3.1506515428        6.6158171678      -18.2529471915
 C         2.9859401743        7.6008990287      -12.1255136557
 C         4.8179259256        6.1472415864      -11.2775724051
 C        -0.1520311936        1.7296971545       -7.5621013870
 C         0.3587840743       -0.1203175638       -9.1682076707
 C        -7.0430358932        3.6331930174      -10.3164953563
 C        -5.0603563622        5.2588247500      -10.1154941330
 C       -10.0459877256        2.7566212510       -5.5873431687
 C        -9.6006873312        0.7910032521       -4.0853054611
 C       -13.2386546397       -3.1228724755       -8.5093356276
 C       -13.0605550913       -1.4270216742       -6.5396372620
 C       -15.9431268282       -7.3293220464       -6.5394225707
 C       -15.4493377984       -8.2042261755       -4.2088990373
 C       -13.6223083001      -13.9953946616       -9.3079866599
 C       -15.9887309580      -14.7670671888       -8.5527317216
 C       -14.5738617526      -16.6735201658       -1.9600003068
 C       -16.8914725276      -15.9117667796       -2.4642776469
 H       -15.0013615738      -13.0500581839        0.0422566795
 H       -14.3294538981      -14.7254740283       -0.1066580233
 H       -16.0495599926      -14.3951470627        0.0401090469
 H       -13.3393563045      -16.6412031763       -4.4453270531
 H       -12.9042305312      -14.9362660733       -4.6115438099
 H       -14.5003804898      -16.5054600927       -6.7053887852
 H       -12.8666426046      -16.0349602348       -6.6448172515
 H       -14.3818955069      -11.0171690431       -9.3473374898
 H       -13.4992538672      -11.2431392085       -7.7400544939
 H       -16.2122517608       -9.8321105014       -8.3228065008
 H       -14.6799981882       -9.1097486157       -8.0965428842
 H       -12.1434161876       -6.7160234998       -4.6710885848
 H       -13.8614697808       -6.0307223316       -4.7093922475
 H       -13.4640969992       -5.8812605803       -7.3338961883
 H       -11.8588635781       -5.6999289324       -6.8447326125
 H       -10.6977492508       -1.1489123576       -8.5653917653
 H        -9.4825872310       -2.4449848212       -8.3799698148
 H        -8.4337616882       -0.8447057752       -7.3889986786
 H        -9.0983270549       -1.5411555036       -5.9567763131
 H        -6.4043893862        2.7751370840       -5.2057840176
 H        -7.8816650370        3.7170412939       -5.8553780214
 H        -7.1741594322        2.0914623128       -8.0823407030
 H        -5.6566399211        1.9192151317       -7.3916969065
 H        -2.8569096816        3.3744738556       -8.5297461549
 H        -2.9749375816        3.8564044330      -10.2484969968
 H        -2.6840896524        1.6345401164      -11.0945386743
 H        -2.6354126107        0.9826858925       -9.4006804146
 H         2.3172499427        3.8918670178       -8.3668355769
 H         0.7961643538        4.2604280677       -9.3164673519
 H         2.5160218450        3.3965530615      -11.3585330862
 H         3.6959263000        3.9325655357      -10.1583933864
 H         1.5219921635        5.7682634927      -13.7748004270
 H         1.7282897832        4.2070830537      -14.1626501358
 H         2.8078918453        6.5985096963      -15.5869479171
 H         1.4453862325        5.5962299984      -15.9967411279
 H         5.5769209285        5.5281908357      -16.1608268040
 H         5.5322269892        6.9015257329      -17.3295918716
 H         7.8096681004        6.5371097955      -16.7553702506
 H         7.5727472755        6.0743528085      -18.4411078021
 H        12.1722403753        3.5027596752      -17.3596090009
 H        11.3858261332        2.2346748647      -17.1469995973
 H        12.2970774907        3.8837616814      -14.7994306075
 H        13.2584410576        2.7356054246      -15.4780279664
 H         9.5365736095        2.3855082346      -12.7710596276
 H         9.2076719952        1.9230360304      -11.0324293095
 H         8.3679367663       -0.1837212039      -11.5429587162
 H         9.0746311713       -0.2976517773      -13.1375863809
 H         7.4347859432       -2.0433322810      -15.2849417015
 H         6.5917063985       -1.6805375741      -16.7054001886
 H         5.7966783616       -2.5114215500      -15.4258734173
 H         5.2216907977       -1.8438719140      -12.5877564480
 H         6.2734263481       -1.0467964614      -11.4964995075
 H         6.9996340376       -2.0591464593      -12.6540837023
 H         4.5979316410        0.5070670589      -11.9398982341
 H         3.7877093791        0.1141213597      -13.3608059782
 H         4.7686089769        1.5572014119      -13.1563391394
 H        14.1824648042        1.2765339635      -13.3208043119
 H        13.1333783223       -0.1695746098      -13.3744396917
 H        13.7032590903        0.5513369457      -11.8755215932
 H        13.3447786084        3.4040030517      -12.7242906855
 H        12.8429138865        2.8630331791      -11.1553004123
 H        11.6847671144        3.7860331404      -12.2690928333
 H         8.5988660051        1.7576704915      -17.3342515585
 H        10.1082936402        1.9632566185      -18.4952531831
 H         8.6068247457        2.4490325435      -19.0891858962
 H        10.1824589737        5.7552073425      -18.4828876753
 H         9.2977885115        4.6009338848      -19.7282377748
 H        10.8617260113        4.2904762613      -19.1044618989
 H         3.2359090071        3.7435651102      -19.8220842232
 H         1.8180162007        4.6695382918      -19.5118848955
 H         2.1267718566        3.3909214506      -18.3811927527
 H         3.3244394105        6.7970756439      -19.2739631191
 H         3.7335101251        7.3164756868      -17.7201291337
 H         2.0916611854        6.8086917551      -18.0510145001
 H         3.3083154959        8.1373416215      -11.2674184509
 H         1.8526215405        7.6345728553      -12.0905206032
 H         3.2990203125        8.0838421923      -13.0470949268
 H         5.3319260405        6.9729087973      -11.6044198628
 H         5.4947510729        5.3109517863      -11.4772472345
 H         4.8587748194        6.4225949456      -10.2033440371
 H        -1.0391361235        2.2660772090       -7.5070143783
 H         0.6499431459        2.3262290791       -7.0836267184
 H        -0.2208638625        0.7962254769       -7.0560424789
 H        -0.6113048542       -0.5205226414       -9.1583677384
 H         0.7850373032       -0.6851029609       -8.2977100859
 H         0.7546359049       -0.4614389438      -10.1093298018
 H        -7.4621814152        2.7064784152      -10.1021506348
 H        -6.8232038868        3.5884643058      -11.3897252576
 H        -7.6676885584        4.4645597436      -10.1034428192
 H        -4.3445854272        5.1008334396      -10.9012747826
 H        -4.5871787283        5.8166293721       -9.3246079105
 H        -5.8951497527        5.8626181907      -10.4708405697
 H       -11.1529130082        2.7506848096       -5.3976454401
 H        -9.8762733782        3.2212642651       -6.5739739984
 H        -9.5729600847        3.4251754106       -4.9000246992
 H        -9.1796873811        1.3741620861       -3.2796994942
 H        -9.1084182379       -0.1249001705       -3.7449342640
 H       -10.6913654345        0.7847215064       -3.7785574091
 H       -12.8722602294       -2.4824160834       -9.2632799535
 H       -14.2798781305       -2.9307055633       -8.5337188840
 H       -13.0676504763       -4.0872734931       -8.9155728162
 H       -14.0675611867       -1.5782529306       -6.2264395193
 H       -13.0300000917       -0.7142849619       -7.3186152581
 H       -12.5611300149       -1.0485457207       -5.6720768296
 H       -15.7081710692       -7.2513676928       -7.5678628226
 H       -15.7563211107       -6.3143861856       -6.0783956945
 H       -16.9657980145       -7.6731446352       -6.5027480188
 H       -14.5497434515       -8.4627913828       -3.6095900091
 H       -16.2859176585       -8.7746486864       -3.8880252393
 H       -15.7507061412       -7.1485548896       -3.9893698133
 H       -12.8701415837      -13.3305844824       -8.9602589431
 H       -14.1490497969      -13.7227148525      -10.1923419475
 H       -13.3691806456      -15.0329332363       -9.3868604933
 H       -16.2291502683      -15.4423365024       -7.8090824568
 H       -15.7963865111      -15.3786254958       -9.3897808823
 H       -16.8636270711      -14.2030941510       -8.7754796893
 H       -13.5609783019      -16.4566303408       -1.5514085568
 H       -14.6931528240      -17.5527043237       -2.6680240240
 H       -15.1073756554      -17.1297440739       -1.1724005694
 H       -17.4150336861      -15.3117347770       -3.2042107905
 H       -17.2730579690      -15.7382338307       -1.4556804925
 H       -17.0091237716      -16.9248603916       -2.7137838039
 Na      -15.6843109133      -12.7606848765       -4.9567549831
 Na        5.5157284243        2.9159704309      -15.0781136944
