232

 C         0.2237908022        7.3929796591      -22.8751572723
 C         1.3679470705        6.8135755819      -23.8169478514
 O         2.3173609726        7.5176288020      -24.1916698166
 C         1.3313339164        5.2858360272      -24.2333445834
 C         2.3026009706        4.7782108285      -23.1088889621
 O         1.9102607742        4.1577454873      -22.1957189787
 C         3.7402847892        5.1665662520      -23.3504948743
 C         4.6694280862        5.1205057034      -22.1228817699
 C         4.9862540603        3.6935515280      -21.6898960948
 O         4.8698384643        2.7340889017      -22.4718820670
 C         5.6245983502        3.4276613473      -20.2062083564
 C         4.8924928223        2.2578195440      -19.5310634436
 O         3.7015068762        2.3745737892      -19.2983513345
 C         5.5709332614        0.8635398894      -19.1301685106
 C         4.4386585696       -0.1870381948      -19.2368763667
 C         3.5372506502       -0.2645922570      -20.5459736035
 O         3.9271947695        0.1864387793      -21.6165639834
 C         2.0782885166       -1.0657519642      -20.4106761597
 C         0.9467605865       -0.0780398944      -20.0243756937
 O         0.9793921894        1.1016950737      -20.1604204025
 C        -0.2488319638       -0.7914159907      -19.3515618068
 C        -0.9806392944        0.2162953378      -18.4512003334
 C        -2.3966785379       -0.3996250526      -17.9362994273
 O        -2.7204681716       -1.4846537532      -18.3241290413
 C        -3.3760618638        0.5663056587      -17.1987204801
 C        -2.7032213020        0.8710090790      -15.7675284229
 O        -1.5776537894        1.3622747075      -15.7155953003
 C        -3.6350457982        0.7577634557      -14.5283684604
 C        -2.8959346992        1.0504475877      -13.2161302618
 C        -3.1049977151        0.0135340791      -12.1234162469
 O        -3.7824247988       -0.9822198654      -12.2133448482
 C        -2.1781339793        0.0357405044      -10.7726617746
 C        -3.0111010193       -0.3406904915       -9.5451713329
 O        -2.8536405978        0.3840410632       -8.5863042052
 C        -3.7577583033       -1.6063048561       -9.3911772728
 C        -5.1090678655       -1.4048524804       -8.6416870166
 C        -6.0886482786       -2.5841525283       -8.8248005631
 O        -5.7367576598       -3.6387059021       -9.4125588524
 C        -7.4107010159       -2.6513632599       -7.9687767996
 C        -7.1891321635       -3.7268483815       -6.7728259530
 O        -6.4570499911       -3.3882056583       -5.8295161411
 C        -7.7966001428       -5.1471861973       -6.8863025531
 C        -7.7599801352       -5.8963551108       -5.5115173420
 C        -8.9131020016       -5.4886021888       -4.5261200722
 O        -9.5206211726       -4.4382373692       -4.7614554462
 C        -9.2556766320       -6.4307977456       -3.2665129854
 C        -7.8904380121       -6.9669551345       -2.7036364326
 O        -6.9558608504       -6.2482369385       -2.4258338957
 C        -7.9425610546       -8.4572214823       -2.2186160617
 C        -6.5826433564       -8.9821854772       -1.9581155097
 C        -5.9051509493       -9.4533692825       -3.2438391603
 O        -6.5340384135       -9.7111544775       -4.2496453641
 C        -4.2361481617       -9.6910034730       -3.2664999185
 C        -3.3560414337       -8.5039391928       -3.7440917671
 O        -2.5975075737       -7.9323314739       -3.0034857339
 C        -3.4707561342       -8.1405795953       -5.2065784158
 C        -2.6342737178       -6.9092115894       -5.5798945330
 C        -3.2391510732       -5.6499187414       -4.8485295433
 O        -4.4609104189       -5.7496477875       -4.5905235393
 C        -2.2773274202       -4.4083845125       -4.4195565041
 C        -2.9465633982       -3.1148143322       -4.7990675290
 O        -4.0175734444       -2.7306667499       -4.3431395414
 C        -2.3051520642       -2.2064795279       -5.9998488355
 C        -2.7076011334       -0.7345650923       -5.7811203093
 C        -2.0642713311       -0.4038370500       -4.4157349793
 O        -1.3075672479       -1.1662213792       -3.8732397634
 C        -2.4828146939        0.8861697905       -3.6844611316
 C        -3.4138891032        0.0671771303       -2.6220639242
 O        -4.6355095637        0.0346937866       -2.7679984941
 C        -2.7036208353       -0.5780801281       -1.4785321857
 C        -3.7715347821       -0.9219466444       -0.3375627189
 C        -4.8807878329       -1.7559502266       -0.9446292122
 O        -4.5866887341       -2.7799453998       -1.6004803181
 C        -6.5182145795       -1.4694845637       -0.7264564328
 C        -7.3048967746       -1.6549138628       -1.9799770199
 O        -7.5045038479       -2.8029634927       -2.3008263485
 C        -8.0390671303       -0.6301310039       -2.7078994952
 C        -9.0782475988       -1.1618076724       -3.6425518063
 C       -10.2919527991       -0.2343653997       -3.6172998731
 O       -10.3464763161        0.7902153550       -2.8958708995
 C       -11.5984327181       -0.6406619592       -4.3759167639
 C       -11.8681868262        0.6300512908       -5.2795745134
 O       -11.4667310094        0.7136613126       -6.4021405296
 C       -12.4079264370        1.8708448700       -4.6545278575
 C       -11.4864266236       -1.9229698344       -5.2434981961
 C       -12.7798936195       -0.8150811998       -3.3566396370
 C        -6.9817416400       -2.5162999890        0.2260190083
 C        -6.6640588704       -0.0472748694       -0.1979509096
 C        -1.2144233730        1.6638703705       -3.0895143027
 C        -3.3202688130        1.9033451879       -4.5357945781
 C        -2.4173340780       -4.5397676957       -2.8363565138
 C        -0.7747540129       -4.4898070003       -4.9939467650
 C        -3.6839332532       -9.9277072742       -1.8073990185
 C        -4.1047412201      -10.8802130872       -4.2343539790
 C       -10.1141148498       -5.6245736566       -2.2779622922
 C       -10.1842726932       -7.4909915231       -3.8711398229
 C        -7.7572772231       -1.3194776250       -7.3117548295
 C        -8.5749822324       -2.9719743035       -8.9446294337
 C        -1.0059343704       -0.9254391248      -11.1013382716
 C        -1.4789178700        1.4406714053      -10.5332591849
 C        -3.4259774851        1.9447084178      -18.0616876325
 C        -4.7618541800       -0.2216221793      -17.1264353752
 C         1.5639026682       -1.6716139476      -21.7732987177
 C         2.3487066631       -2.2573634194      -19.3596682381
 C         7.0262265514        2.9612260040      -20.5344548419
 C         5.5590112211        4.7226939410      -19.3008468790
 C        -0.0061206810        4.5085631304      -24.0639809207
 C         1.8176944055        5.2781449801      -25.7251077926
 H         0.1681051379        8.4759185185      -22.9295232325
 H         0.2880316099        6.9650896867      -21.9089762741
 H        -0.6634807379        7.0654877859      -23.3309131553
 H         3.9015124121        6.1737735571      -23.8325650365
 H         4.2937398850        4.4494668123      -24.1037019256
 H         4.1705257974        5.8264544338      -21.3725964015
 H         5.6556870071        5.6452974565      -22.3857773047
 H         5.8926373602        0.9242108331      -18.0804415128
 H         6.3162791736        0.5204808252      -19.7496472731
 H         3.7319801416        0.0815197970      -18.4869216152
 H         4.6992012792       -1.2640309260      -18.8464312095
 H         0.1694715561       -1.5433116348      -18.7818572917
 H        -0.9690098525       -1.1692055067      -20.0905158741
 H        -1.2131734176        1.0535086448      -19.0176834971
 H        -0.3060634817        0.6335409099      -17.6362808040
 H        -4.1863570939       -0.1519682070      -14.5517769093
 H        -4.3802551111        1.5517562358      -14.6414202194
 H        -3.3053129707        1.8990407791      -12.7172451992
 H        -1.7774675213        1.3188095239      -13.1429966526
 H        -3.1141003170       -2.2726956207       -8.8165146123
 H        -3.8506367827       -1.9871112264      -10.3675104862
 H        -5.6185323703       -0.5603031801       -8.9175324886
 H        -4.7440978086       -1.3876235393       -7.5484645414
 H        -7.1208103712       -5.6601840078       -7.5183563416
 H        -8.8038639605       -5.1986379134       -7.2544188173
 H        -6.7364929799       -5.8659213849       -5.0172735750
 H        -7.9248761029       -6.9482297078       -5.6800781626
 H        -8.4005878452       -8.9629856641       -2.9849029979
 H        -8.5161043533       -8.6397351222       -1.3585137801
 H        -6.7147704604       -9.7034325356       -1.1527693502
 H        -5.9473625437       -8.1729721117       -1.6246721822
 H        -4.6003376703       -8.0550255380       -5.3503990685
 H        -3.3156461448       -9.0292208067       -5.8748776855
 H        -2.6963474759       -6.6977933754       -6.6135557519
 H        -1.5899388841       -7.0594946709       -5.4903615570
 H        -2.8598724494       -2.6250860298       -6.8456236665
 H        -1.1753139967       -2.2637261396       -6.1191652229
 H        -3.7653684418       -0.5942894503       -5.6614483052
 H        -2.4329799965        0.0336273268       -6.4726624703
 H        -1.7969240003       -0.0619767200       -1.1394300272
 H        -2.2445712250       -1.5329022061       -1.7983582185
 H        -4.1651138257       -0.0160590678        0.0963681912
 H        -3.3974325015       -1.4615224338        0.5263753821
 H        -7.2297985647       -0.0759566615       -3.3313952133
 H        -8.5172542943        0.0823874226       -2.0430952552
 H        -9.3551810084       -2.1991748128       -3.2994207039
 H        -8.7236069390       -1.2098327282       -4.7033840550
 H       -11.7734643977        2.2872633063       -3.9035756576
 H       -13.3137891508        1.7117584681       -4.0500355250
 H       -12.6055015459        2.6365272684       -5.3588216968
 H       -10.6767188720       -1.7308597694       -5.8754204679
 H       -12.4346245094       -1.9638859188       -5.8810523938
 H       -11.1884622814       -2.9101480948       -4.7662342980
 H       -12.4271770296       -0.3964321788       -2.3977290884
 H       -13.0191427379       -1.8340690870       -3.0518725506
 H       -13.7314472030       -0.4807141763       -3.6485680023
 H        -8.0475171080       -2.6653825952        0.1629568306
 H        -6.6848263881       -2.2362889834        1.2538012152
 H        -6.3590888141       -3.3471122713        0.0781650377
 H        -7.6572140053        0.1105545049        0.1582422550
 H        -6.6339856646        0.5917423589       -1.0915683659
 H        -6.0176814938        0.2109930472        0.5943428713
 H        -1.4101074722        2.2902080428       -2.1667562627
 H        -1.0895556528        2.5188942224       -3.6746085740
 H        -0.4094424393        0.8998979372       -3.0108209655
 H        -3.6804918744        2.7451933613       -3.9442961537
 H        -4.2441674481        1.5160139468       -5.0450455880
 H        -2.5719626384        2.3569404114       -5.2117899537
 H        -2.0945146836       -5.5846834745       -2.4799782285
 H        -3.4754943665       -4.3685317548       -2.6678905385
 H        -1.9339692910       -3.7351205361       -2.2170633492
 H        -0.2084327328       -5.3739194368       -4.7890188907
 H        -0.2543688691       -3.6816019673       -4.4418712350
 H        -0.8281039426       -4.2746393062       -6.0139925979
 H        -3.8829316214       -9.0386490103       -1.1790002983
 H        -2.5913191208      -10.0706118740       -2.0132776365
 H        -4.1529544504      -10.6771152454       -1.1770881507
 H        -4.4908717960      -10.5477381951       -5.1960387078
 H        -4.6661892027      -11.7265368565       -3.8915178624
 H        -3.0884397054      -11.1466589814       -4.3875264598
 H       -10.8165170992       -4.9448406003       -2.8367793332
 H        -9.5028719137       -4.8426790852       -1.7330455930
 H       -10.8196010025       -6.0886816294       -1.6027815299
 H       -11.0350033073       -7.1051538452       -4.4111915532
 H       -10.5616034215       -8.2116825767       -3.1089904470
 H        -9.6261886363       -8.0536497900       -4.5076129013
 H        -8.0418324745       -0.5619395447       -7.9400112400
 H        -7.0550540542       -0.9251614146       -6.6800685272
 H        -8.6555947884       -1.3045860808       -6.7593718772
 H        -8.6485874053       -4.0306650001       -9.1183401333
 H        -8.3784383682       -2.3095946569       -9.7618116291
 H        -9.4073625185       -2.7051783109       -8.3797601694
 H        -0.5283464509       -1.0548508348      -10.2053471373
 H        -0.4231611988       -0.3858814519      -11.8523225501
 H        -1.5827398684       -1.8129390877      -11.5082583840
 H        -2.2084192060        2.2480141306      -10.3213985559
 H        -0.7647405431        1.7490302692      -11.2531680360
 H        -1.1303528137        1.1032379962       -9.5246573167
 H        -2.5276869080        2.5444695811      -17.9249424972
 H        -4.2303334980        2.5888811102      -17.6469839310
 H        -3.5110560571        1.7186869029      -19.1856625194
 H        -4.6085411172       -1.0716717834      -16.5325240564
 H        -4.8437396064       -0.4979520712      -18.1804211953
 H        -5.5904746719        0.4784391820      -16.9575587019
 H         2.4663502400       -2.1153029330      -22.3044745418
 H         1.1460109423       -0.9133230198      -22.5259631679
 H         0.8105346057       -2.3825583206      -21.5958471053
 H         3.0460727458       -3.0282149367      -19.7714078654
 H         1.4668661029       -2.8375439895      -19.1706355834
 H         2.6785030090       -1.8969683326      -18.3705444588
 H         6.9707048260        2.1534109121      -21.2050301611
 H         7.5966184081        2.7132372976      -19.6934939793
 H         7.5283423861        3.7444533229      -21.0653976042
 H         6.1339155246        5.5234252004      -19.7894189000
 H         6.0999237537        4.3040342942      -18.4405108537
 H         4.4910112036        4.9269667896      -19.2256166455
 H        -0.7460166550        4.7474216200      -24.8952855447
 H        -0.4712921105        4.5796084073      -23.1099660486
 H         0.0674061277        3.4868598443      -24.1977288392
 H         2.3071532015        6.2058440613      -26.0439531127
 H         1.0072654332        5.1132585583      -26.3907131604
 H         2.5362560739        4.4752156434      -25.9702891561
 Na       -5.9137680520       -3.9941103455       -3.4879140217
 Na        2.5787978145        2.2725979569      -21.5001208411
