232

 C         0.0671817984        7.2684577091      -22.7421606135
 C         1.2037901532        6.9620884327      -23.6589052591
 O         2.1614353042        7.6202392753      -23.8614126183
 C         1.1830952587        5.4046754544      -24.3330399716
 C         2.2886131027        4.8042851761      -23.3717739954
 O         1.8320012268        4.0324937700      -22.4459960056
 C         3.8039284563        5.1888311223      -23.4262920904
 C         4.5909436984        5.1971990685      -22.0769946970
 C         4.9264915841        3.7811918883      -21.6697893308
 O         4.6434156794        2.8455997022      -22.3539959855
 C         5.5683368000        3.3973285543      -20.2201369468
 C         4.6704216267        2.1569898818      -19.7054941484
 O         3.5218020964        2.4326714546      -19.3400872243
 C         5.3630490258        0.7928819379      -19.6178584249
 C         4.3607564303       -0.3216169347      -19.1695640452
 C         3.4223160306       -0.4402329836      -20.3390065071
 O         3.7333189429        0.1233034202      -21.3827107248
 C         2.1187929706       -1.2630757999      -20.2167802609
 C         1.0518095590       -0.2069944368      -19.8749536491
 O         1.1980976649        0.9812717384      -20.3138028375
 C        -0.1989957572       -0.6915970198      -19.2322954903
 C        -0.8581592126        0.1747823811      -18.1827612348
 C        -2.2689847559       -0.3680857708      -17.9927500202
 O        -2.6329328579       -1.3942812226      -18.5297601186
 C        -3.3374069831        0.5713308487      -17.1713170242
 C        -2.7062229715        0.7914794399      -15.6815917382
 O        -1.5678298248        1.1787347310      -15.5548879410
 C        -3.6297567572        0.8408687671      -14.4336490119
 C        -2.9497888663        1.2680909316      -13.1618601124
 C        -2.9790547005        0.0624468792      -12.0892815296
 O        -3.7598606962       -0.8128233769      -12.4001693700
 C        -2.0980605741       -0.0038339577      -10.8338115734
 C        -2.9796037965       -0.3487885957       -9.5707389723
 O        -2.9567876091        0.3558695966       -8.5702672580
 C        -3.9729483714       -1.5851982017       -9.5854548528
 C        -5.0803765384       -1.4843877031       -8.5170238908
 C        -5.9463107053       -2.7463091725       -8.6226958980
 O        -5.6622915760       -3.7089578310       -9.2376901133
 C        -7.3858299532       -2.6844224665       -7.8511211809
 C        -7.2715857279       -3.7969721328       -6.7607823539
 O        -6.5180090470       -3.5461978514       -5.8744657092
 C        -7.8195020118       -5.2158096317       -6.9243318551
 C        -7.7803588034       -6.0242120110       -5.6129935097
 C        -8.8441741487       -5.4824089751       -4.6131770093
 O        -9.5747803760       -4.6043551244       -4.8790722243
 C        -9.0527300500       -6.5025196251       -3.3330674503
 C        -7.7842029330       -7.0403883133       -2.6846356340
 O        -6.9658595594       -6.1932341375       -2.3510903214
 C        -7.8350171307       -8.4848356259       -2.1390940236
 C        -6.3504712097       -8.9680126898       -1.8301121983
 C        -5.7440732646       -9.4747300828       -3.2784000706
 O        -6.4087363376       -9.5239765724       -4.2823574291
 C        -4.1822155431       -9.7180727855       -3.3630325102
 C        -3.4283761782       -8.5177495876       -4.0599593844
 O        -2.5691919715       -7.8634432636       -3.4484152813
 C        -3.6622095451       -8.0436346882       -5.5065886890
 C        -2.8690896087       -6.7824395160       -5.7577793908
 C        -3.3323956714       -5.6223486369       -4.9245344967
 O        -4.4980494317       -5.5558152951       -4.6979769570
 C        -2.3059573614       -4.4753756912       -4.4575220536
 C        -3.0932384817       -3.0418451473       -4.9274193776
 O        -4.2381912192       -2.8983606662       -4.5782831890
 C        -2.5119015932       -2.2129656995       -6.0944716529
 C        -2.8681872296       -0.7978195928       -5.6505385432
 C        -2.0825828711       -0.2439839042       -4.4136308330
 O        -1.0927367792       -0.8870039513       -4.0281756077
 C        -2.4999226943        1.0825962963       -3.6167318797
 C        -3.3866878866        0.2797792436       -2.6129055158
 O        -4.5845953173        0.0756109136       -2.8301142948
 C        -2.7236086829       -0.4855257456       -1.4207164841
 C        -3.7292103385       -0.9188959883       -0.3463520545
 C        -4.9689701837       -1.7839842985       -0.8845273923
 O        -4.6835600125       -2.7737020010       -1.4581062588
 C        -6.4981115197       -1.3870430658       -0.5668925866
 C        -7.3833634914       -1.6829478926       -1.7823062256
 O        -7.3779167745       -2.8178253262       -2.2744103680
 C        -7.8865459181       -0.5438608637       -2.6565240106
 C        -8.9178699622       -0.8424927860       -3.8162673572
 C       -10.3617452875       -0.2098856856       -3.3896279387
 O       -10.4579814486        0.6696171336       -2.6150179147
 C       -11.6037547841       -0.6080773184       -4.3452234049
 C       -11.8285693723        0.7061457606       -5.1954163186
 O       -11.3109754667        0.8612152231       -6.3084351186
 C       -12.7337334578        1.8646430364       -4.7265855808
 C       -11.3288626438       -1.6785882340       -5.4534113374
 C       -12.7882427061       -0.9679761994       -3.4045680108
 C        -6.9065552993       -2.3696216631        0.6039942034
 C        -6.6304621462        0.0603316083        0.0428482615
 C        -1.2526296531        1.7937954675       -3.0006406934
 C        -3.4477826667        2.0153562253       -4.4213347076
 C        -2.0767302885       -4.5846205235       -2.9480287535
 C        -0.8224514977       -4.6030344585       -5.1230746016
 C        -3.6534486816      -10.1879500575       -2.0684737266
 C        -3.9464770170      -10.9498077018       -4.3149488181
 C        -9.8317170314       -5.7048949107       -2.2660172687
 C        -9.9441349019       -7.5887082549       -3.9789607986
 C        -7.6784302029       -1.4172674755       -7.1312899453
 C        -8.4716708311       -3.0863342007       -8.9036484887
 C        -0.9980629762       -1.0894427410      -11.0657061103
 C        -1.4380985180        1.3254169715      -10.5909236231
 C        -3.5623816659        1.8530216842      -18.0260623309
 C        -4.7600080022       -0.1974232737      -17.0155580696
 C         1.8795838889       -1.5993133266      -21.7859683469
 C         2.1277632818       -2.5715451150      -19.3918988022
 C         7.0543045271        3.2004258555      -20.5774717294
 C         5.4397848496        4.4713843522      -19.0836805091
 C        -0.1763400898        4.7781094110      -24.2922651387
 C         1.8185229819        5.3603349746      -25.7479079951
 H        -0.0487900806        8.3492566871      -22.6914166267
 H         0.3608450173        6.7889775590      -21.8014608318
 H        -0.9115426648        6.9229371983      -23.1580415530
 H         3.8598756941        6.0831115839      -24.0564140665
 H         4.3611779087        4.4725058675      -23.9299363910
 H         3.9023237557        5.5609948338      -21.3439727826
 H         5.4395687313        5.8487137639      -21.9895228966
 H         6.0376603822        0.8360044413      -18.7838784002
 H         5.8087438077        0.4742060093      -20.6652966475
 H         3.8804863728       -0.0029841249      -18.2209686982
 H         4.7593348058       -1.2575722489      -18.8814063436
 H         0.1120732773       -1.7209242609      -18.8385167328
 H        -0.9493489106       -0.7942905118      -20.0365254051
 H        -0.9015769886        1.3112559976      -18.3503570861
 H        -0.4256969043        0.1433321824      -17.2269730300
 H        -4.3440707599       -0.0070646873      -14.2589969405
 H        -4.2451734047        1.6777494284      -14.8073822512
 H        -3.3708924381        2.1645891688      -12.6242835692
 H        -1.9601950626        1.5340812591      -13.2903341809
 H        -3.3666457114       -2.5065763636       -9.4700859220
 H        -4.4176040611       -1.5789669401      -10.6531216906
 H        -5.7775620924       -0.5506519993       -8.8210236397
 H        -4.6789105982       -1.3220063444       -7.5524132253
 H        -7.1368121647       -5.7590760427       -7.6821629675
 H        -8.8967213423       -5.2192703603       -7.2727848599
 H        -6.8179252009       -5.8795311762       -5.2031534516
 H        -7.8462697283       -7.1223162218       -5.7039613277
 H        -8.4720043662       -9.1906474386       -2.8171286009
 H        -8.4860043755       -8.2991076615       -1.2025143294
 H        -6.3099848717       -9.7993834294       -1.1009391922
 H        -5.7754574664       -8.0823595611       -1.4434557693
 H        -4.6865606512       -7.9457799419       -5.7732778729
 H        -3.3148257932       -8.8269750684       -6.1557274296
 H        -2.8168536652       -6.5971437252       -6.8857342061
 H        -1.7776360506       -6.9143156829       -5.6454725041
 H        -2.9883036035       -2.4042159447       -7.0688520452
 H        -1.4655586718       -2.3598049457       -6.0670624376
 H        -4.0010285814       -0.6236034909       -5.4657316558
 H        -2.6289807398       -0.0837128203       -6.4578257697
 H        -2.0424472436        0.1565694489       -0.8403041833
 H        -2.0039760914       -1.2954440289       -1.5415009616
 H        -3.9697168134       -0.0463904265        0.2918549240
 H        -3.1515057793       -1.5402119034        0.3386494576
 H        -7.0081774935       -0.2159426567       -3.0984775779
 H        -8.3239551160        0.2313070435       -2.0337420922
 H        -8.9436877580       -1.8782234134       -4.0347848293
 H        -8.6560218141       -0.2648327466       -4.6447466066
 H       -12.1525110871        2.6736556985       -4.1399276618
 H       -13.4868929700        1.6180407530       -4.0041012008
 H       -13.1005478385        2.4718992330       -5.5594019491
 H       -10.4233333976       -1.4345956756       -6.0444063036
 H       -12.1786940074       -1.7569207664       -6.0118339445
 H       -11.0729861505       -2.5766127071       -5.0144429475
 H       -12.7557473586       -0.4880529941       -2.4535524778
 H       -12.8772417959       -2.0105448763       -3.1300942500
 H       -13.7084740090       -0.6602928308       -3.9417201100
 H        -7.9964165052       -2.2252863367        0.7165606362
 H        -6.3634166987       -2.1925852617        1.5092836922
 H        -6.5546109394       -3.4078790879        0.3474830113
 H        -7.6573759910        0.3827370238        0.2021829292
 H        -6.2962334433        0.9226394249       -0.5201163558
 H        -6.1592759661       -0.0922656240        1.0256013671
 H        -1.2346933800        1.7035476384       -1.9570093328
 H        -1.3409595845        2.9002333172       -2.9964310739
 H        -0.3971868616        1.2294607125       -3.3743275835
 H        -3.9250468462        2.8017509269       -3.8486985170
 H        -4.2098825378        1.3885317331       -4.6571205839
 H        -3.0240197677        2.5305375058       -5.2157188169
 H        -1.5711968218       -5.4611347603       -2.7397018020
 H        -2.9968958980       -4.5153606898       -2.4134177126
 H        -1.4731170989       -3.7652387188       -2.6040311310
 H        -0.3331772399       -5.4550720667       -4.5917178702
 H        -0.1423166116       -3.7920876223       -4.8864675277
 H        -0.9492870164       -4.9097702513       -6.2140044404
 H        -4.0833540583       -9.6237562653       -1.2868633426
 H        -2.5979305051      -10.2233266654       -2.0872601006
 H        -4.1768672712      -11.0842470393       -1.8330653028
 H        -4.4766143627      -10.9193191217       -5.2427451650
 H        -4.2020160682      -11.8475227273       -3.7724250669
 H        -2.8719286544      -11.0522228165       -4.4904069719
 H        -9.9869060332       -4.6826953631       -2.4520145509
 H        -9.3848395219       -5.6780182049       -1.3296194672
 H       -10.8530759471       -6.0594594731       -2.1657793413
 H       -10.7516488778       -7.0754532770       -4.4686124453
 H       -10.4811987980       -8.1939846026       -3.3224331877
 H        -9.4335188393       -8.2461376899       -4.7337118394
 H        -7.4097517612       -0.4128258947       -7.5979669079
 H        -7.2371797228       -1.3524512979       -6.1338905734
 H        -8.7175693829       -1.1819362594       -7.0350038403
 H        -7.9120878288       -3.6674401918       -9.6470837223
 H        -8.8940152968       -2.1362401434       -9.1644384877
 H        -9.2010753544       -3.8409532982       -8.5093097109
 H        -0.6913653234       -1.2604594509       -9.9973963495
 H        -0.1575994453       -0.4871076127      -11.4083671384
 H        -1.3636935618       -1.8383415048      -11.6366329890
 H        -2.2208994746        2.0105637518      -10.4246356413
 H        -0.9975746533        1.5028248829      -11.6457645640
 H        -0.7266012430        1.3364572076       -9.8500555292
 H        -2.5639109328        2.4701567444      -18.1085959267
 H        -4.2867701757        2.5059648583      -17.5592361379
 H        -3.7074308580        1.5667592949      -19.0110416082
 H        -4.4735196238       -1.0707181362      -16.3573533160
 H        -5.2491274386       -0.3909829616      -17.9834181285
 H        -5.3706329231        0.5585908413      -16.5230744191
 H         2.6845280623       -2.0444530144      -22.2588962531
 H         1.7089498424       -0.7195972649      -22.3404518436
 H         0.9806213230       -2.2512508770      -21.8711371667
 H         3.1110381596       -2.9850694159      -19.4395377758
 H         1.5032243255       -3.3801712091      -19.8126872642
 H         1.9070520261       -2.4322073768      -18.3437302454
 H         7.2297550654        2.2864189427      -21.2549132322
 H         7.6484965304        3.0550411981      -19.6173549261
 H         7.4689590023        4.1379513712      -21.1086832259
 H         5.9382475606        5.2765379767      -19.6057915621
 H         6.0605363160        4.0690407602      -18.2959136510
 H         4.4044960711        4.7166146217      -18.9518228009
 H        -1.0461570395        5.4085770150      -24.4278256370
 H        -0.2248521145        4.2326483919      -23.3330575007
 H        -0.3453233206        3.9016353989      -25.0111820894
 H         2.5941795743        6.1541246300      -25.8522041828
 H         1.0992586596        5.4452290863      -26.5612983514
 H         2.2818324834        4.4411596048      -25.9175305473
 Na       -5.7670116160       -4.0189190118       -3.3105217793
 Na        2.6839815492        2.1285432995      -21.5357778061
