232

 C        -0.0458807211        7.2063786478      -22.7171464800
 C         1.1607909938        7.0097292745      -23.6675157898
 O         2.0831466443        7.7797250906      -23.7997236326
 C         1.2348974122        5.5388203638      -24.2807070744
 C         2.2487785982        4.8716117021      -23.3320961629
 O         1.8791787127        3.9699171776      -22.5643910790
 C         3.6859442915        5.1485990183      -23.4369578014
 C         4.2865132736        5.1524108436      -22.0993111721
 C         4.7289174333        3.7658596593      -21.6602701080
 O         4.6043839944        2.8503515095      -22.3974379878
 C         5.5441447763        3.5085292408      -20.2615362451
 C         4.8446259335        2.2305308095      -19.6788632406
 O         3.6569765548        2.3228506601      -19.4037528910
 C         5.5054200243        0.9247382811      -19.5006903869
 C         4.4634177971       -0.2699938838      -19.1585067188
 C         3.4915389310       -0.5332234271      -20.3432359090
 O         3.6130541912        0.0135580531      -21.4468438488
 C         2.1511805145       -1.3680745770      -20.2765271273
 C         0.9758747788       -0.2995046353      -19.9071115353
 O         1.0778598344        0.8622374873      -20.2357275193
 C        -0.2704104197       -0.7605502591      -19.1803278176
 C        -0.8235292029        0.1743503145      -18.1030035186
 C        -2.3823827912       -0.3000177838      -17.9159308899
 O        -2.6580567937       -1.2757776856      -18.5084687388
 C        -3.3328532381        0.5247954870      -17.0192401399
 C        -2.7405711004        0.9429657897      -15.6631380623
 O        -1.5204822136        1.0555055973      -15.5248224804
 C        -3.6624465855        0.9890828656      -14.4020473927
 C        -2.8760009676        1.2876977621      -13.1821467581
 C        -2.9794995339        0.0696487746      -12.2046646412
 O        -3.7395820420       -0.8522002667      -12.4901635103
 C        -2.1555051422        0.0819372101      -10.9456030380
 C        -3.1105162214       -0.3407612412       -9.6502951946
 O        -2.9901965139        0.2992613110       -8.6405705820
 C        -4.0003978314       -1.5845457245       -9.6887214519
 C        -5.0384763578       -1.5170780025       -8.6141687708
 C        -6.0124533806       -2.7183803362       -8.5838701405
 O        -5.5862724735       -3.7528374086       -9.1310058548
 C        -7.3389620493       -2.7324177394       -7.8152177815
 C        -7.1778911319       -3.8619854236       -6.6998692366
 O        -6.5793555958       -3.6217750846       -5.6363228433
 C        -7.8241756680       -5.2400676366       -6.9473304099
 C        -7.7108419254       -6.0575515644       -5.6828431105
 C        -8.8154172189       -5.6484535108       -4.6370887339
 O        -9.4943066329       -4.6709702783       -4.8147508912
 C        -9.1291045323       -6.5049198037       -3.4428473806
 C        -7.6990171440       -6.9414275776       -2.6340399916
 O        -6.7462886856       -6.2264170157       -2.4670994313
 C        -7.6404665197       -8.3414379599       -2.0830367817
 C        -6.2006893026       -8.9524421373       -2.0836846328
 C        -5.6576890400       -9.3812100598       -3.3986310062
 O        -6.4124777131       -9.3830429121       -4.3400064658
 C        -4.1036081933       -9.8139215577       -3.3808227514
 C        -3.3735170353       -8.5168239025       -4.1008967992
 O        -2.5868822048       -7.8169437469       -3.4934067998
 C        -3.7658831449       -8.0837053426       -5.5514076051
 C        -2.9402715595       -6.8263406518       -5.9033346417
 C        -3.4135618702       -5.7292184013       -4.9545915232
 O        -4.5674526291       -5.6153904183       -4.6458107995
 C        -2.3812195684       -4.5296235652       -4.5722657995
 C        -3.0092493334       -3.1872060666       -5.0104962019
 O        -4.0916161938       -2.8692295477       -4.5688971220
 C        -2.4555448885       -2.1120856239       -5.9806848842
 C        -2.8611110504       -0.6361740308       -5.6084707972
 C        -1.9515719459       -0.1482589890       -4.4888278923
 O        -0.9467492293       -0.7198218631       -4.1644911785
 C        -2.5656061383        0.8941250656       -3.5712999152
 C        -3.4563831982        0.2731257057       -2.5159884486
 O        -4.6949500564        0.1596188804       -2.7527441216
 C        -2.8521740427       -0.3770717931       -1.2659518290
 C        -3.8625782470       -0.8854919851       -0.2983494696
 C        -5.0271233654       -1.7514026718       -0.8806529588
 O        -4.7341310044       -2.7974575858       -1.4780738165
 C        -6.4756714134       -1.4017836541       -0.4159180662
 C        -7.3118170721       -1.6055083645       -1.8199374755
 O        -7.4192610376       -2.7467316145       -2.2812671798
 C        -7.8807105797       -0.3767675824       -2.5993152899
 C        -8.9314738021       -0.6922785638       -3.7102205625
 C       -10.2931645611       -0.1937482118       -3.4280054908
 O       -10.5367067439        0.4954443386       -2.4459855294
 C       -11.5403008933       -0.5322398945       -4.3692797604
 C       -11.8175138249        0.7500912356       -5.2202733458
 O       -11.2214561136        0.9457987180       -6.2383859287
 C       -12.8576586747        1.7732590329       -4.6482171446
 C       -11.2078884459       -1.6373628792       -5.4105020400
 C       -12.7018120920       -0.8815181061       -3.5221722726
 C        -6.7825722298       -2.3886688084        0.7394262048
 C        -6.5799055934        0.0649229237       -0.0222503371
 C        -1.3623659434        1.8286931705       -3.0302962230
 C        -3.3820592292        1.9763860650       -4.3754396980
 C        -2.1285674630       -4.4447516655       -3.0202830740
 C        -0.9982392951       -4.5905661654       -5.2873594337
 C        -3.4905451145      -10.2245602153       -2.0250275393
 C        -3.9743145803      -10.9776623056       -4.4834325120
 C        -9.8522186701       -5.7077544068       -2.3576770286
 C        -9.9575713272       -7.6531107302       -3.9754755424
 C        -7.6872315230       -1.4461151255       -7.1262962037
 C        -8.4447407124       -3.1008297520       -8.9633856849
 C        -1.1546595398       -1.1858864572      -10.9717996090
 C        -1.3518585302        1.3952509534      -10.6055364258
 C        -3.6038200744        1.8601272423      -17.8256407022
 C        -4.7077031706       -0.2688905219      -17.0132878754
 C         1.8621000723       -1.7790640342      -21.7927733688
 C         2.1694211569       -2.6682622598      -19.4904973371
 C         7.0239369498        3.1544799932      -20.4310658028
 C         5.3857859895        4.5208352729      -19.1104838912
 C        -0.0804512723        4.8045009763      -24.3332744318
 C         1.8281266590        5.5717784957      -25.7344521717
 H         0.0464188450        8.3064835816      -22.4544074505
 H         0.2975008769        6.5907725236      -21.8750855155
 H        -1.0842158211        7.0741973504      -23.0955689634
 H         3.8684990247        6.1399620936      -23.9446208959
 H         4.3014212510        4.4363059563      -23.9932967581
 H         3.6483828912        5.6852085270      -21.4203896205
 H         5.1659538727        5.7053053744      -22.1315825334
 H         6.1825072419        0.8891626968      -18.6158300763
 H         5.9438633458        0.6104326299      -20.4979520110
 H         3.9353572240       -0.1178529029      -18.3302695875
 H         5.0258334955       -1.2226904455      -18.8591095137
 H        -0.1035985277       -1.7860931757      -18.8521263140
 H        -1.0328677414       -0.7371743620      -19.9796104225
 H        -0.7023493570        1.2593130661      -18.3131494139
 H        -0.2277284056        0.0650886861      -17.1786570584
 H        -4.0167710058       -0.0534820347      -14.2831086860
 H        -4.5891673681        1.6025362486      -14.5282492156
 H        -3.2188038930        2.1007698087      -12.5936502362
 H        -1.8254830538        1.5375211270      -13.3254901168
 H        -3.1989498002       -2.3006295340       -9.5157378675
 H        -4.4015259582       -1.7777040822      -10.7446190787
 H        -5.4801678654       -0.5745029790       -8.7755705560
 H        -4.5792334875       -1.4877087973       -7.6291937277
 H        -7.3063330626       -5.8012766203       -7.7044793731
 H        -8.8916450336       -5.1698329360       -7.1732937575
 H        -6.6421934504       -6.0206080104       -5.3415621466
 H        -7.8535807409       -7.1085190581       -5.8904325512
 H        -8.3345056602       -8.9450086126       -2.6912867749
 H        -8.1005888035       -8.2758537383       -1.0596648769
 H        -6.1953952224       -9.8963467806       -1.5607083042
 H        -5.5054953276       -8.2499542729       -1.5681435528
 H        -4.8221843820       -7.7791568143       -5.6128822766
 H        -3.6616712399       -8.9340787391       -6.2032125026
 H        -3.0128786977       -6.5429105230       -7.0333194704
 H        -1.8676601586       -6.8981270257       -5.8918535798
 H        -2.9254591844       -2.2534300600       -6.8900136012
 H        -1.3382577382       -2.1934082300       -6.0387915371
 H        -3.9584283894       -0.5323320300       -5.1620772390
 H        -2.9063674287       -0.0298587760       -6.5089275256
 H        -2.0096727697        0.0550303056       -0.7711722634
 H        -2.3298769758       -1.2799576577       -1.5743577111
 H        -4.2558303877        0.0109810491        0.2829086568
 H        -3.3227925532       -1.4392768185        0.4593733255
 H        -7.0301401374        0.0556912527       -3.2071433326
 H        -8.2910150630        0.3435491830       -1.9015253470
 H        -9.0841564851       -1.8284114288       -3.8068334891
 H        -8.5991164347       -0.2260052412       -4.6408644931
 H       -12.4625359324        2.6840704910       -4.0736085047
 H       -13.6182858689        1.3412449580       -3.9411848941
 H       -13.2870472686        2.2826258907       -5.4639847464
 H       -10.5277802620       -1.2968084903       -6.1139593951
 H       -12.1591383575       -1.9855663560       -5.8583827527
 H       -10.7045231449       -2.4782414184       -4.8858736668
 H       -13.0222330396       -0.1587639251       -2.7060863840
 H       -12.5304926242       -1.8274524963       -2.9540530703
 H       -13.5211084937       -0.9835866559       -4.2114689945
 H        -7.6662483831       -1.9673583145        1.2374936250
 H        -5.9491678183       -2.5741102267        1.3889422170
 H        -6.9403453205       -3.3816603749        0.3069987586
 H        -7.4916841755        0.5836465290       -0.1089551980
 H        -5.9851636636        0.7101250317       -0.7623879035
 H        -6.1572828477        0.1166758151        1.0079506642
 H        -1.1257810158        1.8245819512       -2.0047937095
 H        -1.5791116326        2.8328019570       -3.2329585211
 H        -0.5401861659        1.3460636741       -3.5363113332
 H        -3.6087250232        2.8404587627       -3.7321997283
 H        -4.3739457438        1.5662021595       -4.5941233190
 H        -2.8744612761        2.4246906346       -5.2073852337
 H        -1.7123435376       -5.3801390369       -2.7029712971
 H        -2.9886951736       -4.2268390898       -2.5095655673
 H        -1.3734044434       -3.6796046238       -2.7849238690
 H        -0.5644170675       -5.5026069265       -4.8368179871
 H        -0.2827113218       -3.8078566706       -5.0020864058
 H        -1.1346463260       -4.8084850589       -6.3363161243
 H        -3.5520690786       -9.4059262702       -1.3363571304
 H        -2.4684835416      -10.5288610169       -2.2375734758
 H        -4.1136015902      -10.9095352359       -1.5632525721
 H        -4.6076743228      -10.7955067203       -5.3887237600
 H        -4.3034181595      -11.9113746505       -4.0115490373
 H        -2.9268237753      -11.1791612494       -4.7512465211
 H        -9.7742476344       -4.6481086649       -2.3857839284
 H        -9.4824586930       -5.9099952395       -1.3743757673
 H       -10.8928130160       -5.8643290032       -2.3257555982
 H       -10.9581478569       -7.3537170045       -4.4208340825
 H       -10.3443627379       -8.2801428044       -3.0932316343
 H        -9.4298710570       -8.2962411326       -4.6811502410
 H        -7.6285163982       -0.4939387593       -7.7375852262
 H        -7.0488532202       -1.1730280965       -6.2244000067
 H        -8.7780770248       -1.3087747069       -6.7746923172
 H        -7.8852458185       -3.7529893375       -9.7011091541
 H        -8.7939294726       -2.1250835802       -9.2322694644
 H        -9.2496992196       -3.7631839485       -8.5897392369
 H        -0.7155765578       -1.1908160315      -10.0089377747
 H        -0.3357115470       -0.8099614343      -11.6240289390
 H        -1.7758349147       -2.0355880841      -11.3039436490
 H        -2.0870816282        2.1663140934      -10.5126013630
 H        -0.8291822875        1.4867855714      -11.5769024028
 H        -0.6056097053        1.3293909754       -9.8203723600
 H        -2.6676994366        2.4238804097      -17.9825072502
 H        -4.2880808722        2.4652839446      -17.2473439063
 H        -3.8802064837        1.6287824277      -18.8405535967
 H        -4.4960384743       -1.2181462156      -16.6442361511
 H        -5.1249622771       -0.2050261217      -18.0166505751
 H        -5.3397450796        0.3570478698      -16.3698725907
 H         2.5934007147       -2.4620928101      -22.1964934540
 H         1.8666678635       -0.9282373951      -22.5242867672
 H         0.9522648918       -2.2703060689      -21.8398646917
 H         3.1595441016       -3.1304619091      -19.4193748242
 H         1.5473622116       -3.4222915178      -19.8980435574
 H         1.9022897105       -2.4562675247      -18.4556894813
 H         7.1467774025        2.4374161769      -21.2481484714
 H         7.4351427123        2.7166018437      -19.5360392885
 H         7.5982304224        4.1079288977      -20.7116732638
 H         5.8554697825        5.4141495360      -19.4544496255
 H         5.9854381716        4.0036353147      -18.3899419376
 H         4.3850862576        4.6449040856      -18.9316210242
 H        -0.9966508804        5.4601177303      -24.6364944893
 H        -0.3000750252        4.3074073930      -23.4141281307
 H        -0.0521951699        3.9651833654      -25.0203426525
 H         2.8589693555        6.0714788424      -25.7779612364
 H         1.1671501326        6.0281841465      -26.4767697873
 H         1.9346737503        4.5510391886      -26.0605323200
 Na       -5.8311008013       -4.1894306287       -3.1640343763
 Na        2.6723297595        2.0254803682      -21.5634570229
