232

 C        -0.1046655850        7.2689975795      -22.6595306957
 C         1.1196540282        7.0077190004      -23.5676905329
 O         1.9301387226        7.9152410296      -23.7928133554
 C         1.2727472205        5.5507269418      -24.3065723384
 C         2.1962325834        4.6915920308      -23.4376537780
 O         1.7329012382        3.9331297022      -22.6690635083
 C         3.6601797789        5.2288842948      -23.4396966312
 C         4.3277615948        5.2055389967      -21.9429617153
 C         4.8488034121        3.7467795730      -21.5691602712
 O         4.6685425126        2.8430191860      -22.4222380490
 C         5.5421688308        3.4532130195      -20.1900850437
 C         4.7993836391        2.1256015575      -19.6429671578
 O         3.6168163173        2.2577638937      -19.3969795017
 C         5.6042032713        0.8252864401      -19.4311798022
 C         4.5166846162       -0.2800113888      -19.2390310919
 C         3.5317377327       -0.5242931857      -20.4380996233
 O         3.8496315160        0.0124855333      -21.4790991179
 C         2.1091353997       -1.4437335376      -20.3858076402
 C         0.9906550825       -0.3834385525      -19.8901206555
 O         0.9898867893        0.7406173394      -20.2110088112
 C        -0.2802547023       -0.9328135095      -19.1431196867
 C        -0.8564336401        0.0581430133      -18.1288098904
 C        -2.3470700920       -0.2383842003      -17.8474592519
 O        -2.8308837572       -1.2157752417      -18.4417662894
 C        -3.3248212587        0.5674171466      -16.9959381620
 C        -2.7294404610        0.8607200868      -15.6741524813
 O        -1.5292468846        1.0234985658      -15.5208511167
 C        -3.6961940478        1.1270705304      -14.4830332446
 C        -2.9003489417        1.2792354499      -13.1859127970
 C        -3.0245779900        0.0791149928      -12.2222452020
 O        -3.6589332143       -0.9088653489      -12.5647766383
 C        -2.1742446120        0.0681058464      -10.9585536927
 C        -3.0814468603       -0.3289444708       -9.6825033023
 O        -3.0526743415        0.3696493111       -8.6938145209
 C        -4.0368076061       -1.5352112958       -9.7660276795
 C        -5.0688250781       -1.4494580353       -8.6834096076
 C        -5.9049394518       -2.8006025622       -8.5125483588
 O        -5.5414525425       -3.8601518324       -9.0622359010
 C        -7.2650042698       -2.7858620391       -7.8091888124
 C        -7.1742621725       -3.8898931553       -6.6280516420
 O        -6.6998848860       -3.5919834286       -5.5523910887
 C        -7.7432438528       -5.2702678224       -6.9311517008
 C        -7.7611578518       -6.1890259912       -5.7029928114
 C        -8.7538076579       -5.6948498772       -4.6845157350
 O        -9.3755028372       -4.6164724998       -4.8835616768
 C        -8.9853211037       -6.5731838064       -3.3336742559
 C        -7.6376666068       -7.0012791513       -2.7310257907
 O        -6.7151331976       -6.2170977614       -2.6883237264
 C        -7.4567925475       -8.3905363238       -2.0278280497
 C        -6.0907700324       -8.9118010950       -2.0257483560
 C        -5.5793216640       -9.3190686927       -3.4300761953
 O        -6.2179072146       -9.2768155510       -4.4861211473
 C        -4.0909874470       -9.7666962453       -3.5916554929
 C        -3.3459972483       -8.5232673278       -4.1543234689
 O        -2.6618090833       -7.9165899966       -3.3932011229
 C        -3.8050992598       -8.1563377454       -5.5201242033
 C        -3.0940519127       -6.8681092744       -5.9674493281
 C        -3.3994049460       -5.5891413360       -5.0881304396
 O        -4.5013561704       -5.7028455529       -4.5073225619
 C        -2.4250438113       -4.5167193939       -4.7551042463
 C        -3.1570044884       -3.1324142014       -5.0261529683
 O        -4.1469878580       -2.8530213334       -4.3873129068
 C        -2.3151656916       -2.1134330077       -5.9431361393
 C        -2.8230431697       -0.7185837724       -5.5969948633
 C        -1.9507083603       -0.1997565113       -4.4033924179
 O        -0.7981941483       -0.5172545753       -4.3328689476
 C        -2.5651742785        1.0167537752       -3.5663696709
 C        -3.5333972389        0.2711391253       -2.4508564865
 O        -4.7210070880        0.2486562582       -2.6060709771
 C        -2.9090097157       -0.4043065740       -1.2635342621
 C        -3.9006574686       -0.9616838442       -0.1518519598
 C        -5.0007118639       -1.7355417027       -0.8207599436
 O        -4.7282677172       -2.7464157644       -1.4991566361
 C        -6.4315376518       -1.3132275853       -0.5082976365
 C        -7.3300258992       -1.5494178331       -1.8564305983
 O        -7.5544489657       -2.6605804677       -2.2505434939
 C        -7.8661646758       -0.2847123599       -2.4919886772
 C        -8.7754209977       -0.6903004679       -3.6174202108
 C       -10.2912972906       -0.1637236049       -3.3351069492
 O       -10.6136146782        0.3624270344       -2.2630018047
 C       -11.5060744749       -0.4935456144       -4.3599222925
 C       -11.8364408892        0.9006620000       -5.2326513500
 O       -11.1402051418        1.1030563096       -6.2153781179
 C       -12.9078166110        1.7517533168       -4.6744085695
 C       -11.0617154785       -1.6569744465       -5.3183462842
 C       -12.6825780372       -0.9681054753       -3.5364944712
 C        -6.8060993764       -2.3285309099        0.6202519508
 C        -6.6182497131        0.1122713126       -0.0149095004
 C        -1.3334747024        1.8384097522       -2.8949292814
 C        -3.4815248262        1.9778040167       -4.4615314659
 C        -2.2430891751       -4.3780830938       -3.2128024988
 C        -1.0765359848       -4.7380017847       -5.4907803421
 C        -3.4199684501      -10.1011117798       -2.2736488672
 C        -4.0277780857      -10.9811695732       -4.6046473389
 C        -9.8623045200       -5.7075062622       -2.3757970442
 C        -9.8256038046       -7.7751308438       -3.7997572431
 C        -7.6875008602       -1.4653646594       -7.1706360452
 C        -8.3681645031       -3.0790406491       -8.8923191516
 C        -1.2345700792       -1.2773013054      -10.9313715666
 C        -1.3719904016        1.3303413102      -10.5982330298
 C        -3.6528496850        1.9675059843      -17.6474668384
 C        -4.6085259509       -0.2935669405      -16.9257726684
 C         1.6912835764       -1.9872529629      -21.7640805478
 C         2.2606109732       -2.6545516908      -19.4497163287
 C         7.0477154184        3.1893380945      -20.4787188769
 C         5.3012841161        4.7458220855      -19.2020138129
 C        -0.0832566004        4.8147777550      -24.3798770279
 C         1.8467740062        5.8778927788      -25.7439723879
 H         0.0511818932        8.2751177521      -22.2289117829
 H        -0.1793397064        6.4687308005      -21.8940723991
 H        -0.9565279641        7.4327346517      -23.3039082019
 H         3.6973584150        6.2818089883      -23.8442049215
 H         4.4674111034        4.6997309100      -24.1095990893
 H         3.4777749101        5.4198341760      -21.2747457999
 H         5.0481387006        6.0307784247      -21.8088532239
 H         6.0862505966        0.7974595559      -18.4234168816
 H         6.1749949083        0.5576178671      -20.2172271382
 H         3.9041353641       -0.0695736193      -18.2948324916
 H         4.9859236287       -1.2370163404      -18.9364725125
 H        -0.1137128932       -1.8802522610      -18.7465341074
 H        -0.9959435913       -1.0433806819      -19.9674109496
 H        -0.8479848157        1.0543162584      -18.4435704080
 H        -0.1204289863        0.0894068408      -17.2500505174
 H        -4.3937086603        0.3006018711      -14.4422406782
 H        -4.2981063234        2.0168451858      -14.7114155607
 H        -3.1066768786        2.1591707816      -12.6266244462
 H        -1.7780733146        1.3838730093      -13.3007894815
 H        -3.3480182662       -2.3855034966       -9.6440733595
 H        -4.4454107506       -1.6157388367      -10.7106569293
 H        -5.6365633294       -0.6197694710       -8.8913870734
 H        -4.6654545422       -1.2571445203       -7.6577024145
 H        -7.2610563291       -5.7193346209       -7.7306801699
 H        -8.7620206118       -5.1553058973       -7.1757611358
 H        -6.7300925552       -6.2682216656       -5.2186079757
 H        -8.0050543346       -7.2305336148       -5.9388124435
 H        -8.0662732309       -9.0827765382       -2.4985896453
 H        -7.8695769131       -8.2461502892       -1.0651609686
 H        -5.9678316873       -9.7800901086       -1.3834334399
 H        -5.4445658323       -8.1198787941       -1.7172059922
 H        -4.9244904715       -7.9992904896       -5.5254046771
 H        -3.6117178017       -9.0421962517       -6.1948903115
 H        -3.3705800630       -6.6535896243       -6.9620535584
 H        -2.0245359588       -7.0038216443       -6.1566146169
 H        -2.5208010433       -2.2898457909       -6.9957896113
 H        -1.2484727012       -2.2483467056       -5.6488397599
 H        -3.8450723418       -0.7397434883       -5.4026690758
 H        -2.7393370925        0.0257057790       -6.4293735802
 H        -2.1697671825        0.2308820546       -0.7695101298
 H        -2.1715873689       -1.1453586004       -1.5767147263
 H        -4.3428762287       -0.0511388694        0.2084693373
 H        -3.4036381935       -1.4328102205        0.7257417109
 H        -7.0838948396        0.4719243319       -2.8904181706
 H        -8.5115699507        0.1727555402       -1.7075299938
 H        -8.9363474736       -1.8225849918       -3.5918296477
 H        -8.4073609458       -0.2712061640       -4.6338755859
 H       -12.5687906709        2.4490208191       -3.9913712981
 H       -13.6770901640        1.1764468715       -4.1230048441
 H       -13.2958192498        2.4490396709       -5.4509207206
 H       -10.5006316127       -1.3619705442       -6.2097882118
 H       -12.0687194953       -2.1055133778       -5.6051945587
 H       -10.4891160880       -2.4529696201       -4.7595478602
 H       -13.1202057334       -0.2195215174       -2.8177393625
 H       -12.2655162800       -1.7556780602       -2.8665250613
 H       -13.5415846143       -1.3359606212       -4.1316466155
 H        -7.3538331906       -1.7796677044        1.3470408784
 H        -5.8520218401       -2.6934779782        1.0490512404
 H        -7.2846305770       -3.2238296635        0.3097081186
 H        -7.6941557056        0.3882759292        0.0836924725
 H        -6.3492320216        0.8405748030       -0.7862119080
 H        -6.0977408596        0.2924826124        0.9270234422
 H        -1.2077081965        1.5333188727       -1.8127860677
 H        -1.4368453492        2.8968380736       -2.9416614094
 H        -0.4792125562        1.4065901642       -3.3216492071
 H        -3.8059283928        2.9098762932       -3.9910450698
 H        -4.4451468892        1.3702186785       -4.6615396417
 H        -2.9551321902        2.3384159691       -5.4110067693
 H        -1.9630244501       -5.3768174754       -2.7866142136
 H        -3.2401904201       -4.0738377646       -2.7873561962
 H        -1.4708924348       -3.6944669223       -2.9286602406
 H        -0.6943196784       -5.7231700006       -5.2393690279
 H        -0.3629408632       -4.0004189950       -5.0874113646
 H        -1.2045837417       -4.7125839069       -6.5282885888
 H        -3.1184219511       -9.1519070487       -1.8066760463
 H        -2.5525690635      -10.6974380885       -2.5195577191
 H        -4.1331199438      -10.5402177296       -1.5618127444
 H        -4.6443166020      -10.8753434249       -5.5331712418
 H        -4.4204341156      -11.8410385124       -4.0133385994
 H        -2.9928297917      -11.2754472046       -4.8334980336
 H        -9.5578287738       -4.6537260820       -2.2825276259
 H       -10.0719525789       -5.9513458783       -1.3164164503
 H       -10.8185103490       -5.6388170293       -2.8538988779
 H       -10.7944551089       -7.4172611281       -4.2617732891
 H       -10.2591973431       -8.3992230781       -2.9365959632
 H        -9.3436031974       -8.4305505238       -4.5385684146
 H        -7.9596776196       -0.6565513200       -7.8331286355
 H        -6.8742094259       -0.9720420904       -6.5732064961
 H        -8.5647506181       -1.4591760742       -6.4619923235
 H        -8.1650343120       -4.0182480624       -9.3683325194
 H        -8.4381545286       -2.1118297421       -9.4514512480
 H        -9.2849953529       -3.1902226239       -8.3294555030
 H        -0.5296312987       -1.3152350561      -10.1489339091
 H        -0.7390735584       -1.0970682660      -11.8473068742
 H        -2.0817696075       -2.0253111280      -11.0805373587
 H        -2.1017151107        2.1792381167      -10.6333379971
 H        -0.5732909334        1.3859435374      -11.2525673429
 H        -0.8815061644        1.1427713991       -9.5654304558
 H        -2.8217041223        2.5298344050      -17.8057555171
 H        -4.3117970380        2.4824630591      -16.9366724871
 H        -4.0493111474        1.8969632018      -18.7468429186
 H        -4.2694258353       -1.2232010135      -16.5770304888
 H        -4.9501693379       -0.3092337608      -17.9239727347
 H        -5.3276577330        0.1797392355      -16.2836406999
 H         2.4539398542       -2.7672425005      -22.0981608988
 H         1.7491056564       -1.2353993530      -22.5587066906
 H         0.7458381525       -2.5035470261      -21.7738756840
 H         3.1723638933       -3.2639526494      -19.5331177458
 H         1.4497651258       -3.3410267606      -19.5993388269
 H         2.2599583487       -2.2949804119      -18.4171758185
 H         7.1910940527        2.6824306166      -21.3875655437
 H         7.5633027640        2.6046237641      -19.7418466543
 H         7.4335665680        4.1139173850      -20.5859813096
 H         5.6896206323        5.6096857246      -19.6783391876
 H         5.8019825736        4.4197795316      -18.3518303506
 H         4.2199784968        4.7797178805      -19.1312929115
 H        -0.7729804616        5.3446356775      -25.0138944999
 H        -0.5815481794        4.6541383770      -23.4005485152
 H         0.0927328477        3.8236087832      -24.7603862454
 H         2.8510886398        6.2147651194      -25.7246304969
 H         1.2139777273        6.6037992128      -26.2815536208
 H         1.7674044397        4.8998352349      -26.3789130290
 Na       -5.8610815795       -4.2735055920       -3.1261718999
 Na        2.5565153659        1.9432753492      -21.5804726277
