232

 C        -0.2621424083        7.2805432331      -22.5770808112
 C         0.9259596006        7.1381433549      -23.5430411003
 O         1.7727387090        7.9599365853      -23.6680274063
 C         1.1636449664        5.7610605601      -24.2919710769
 C         2.1780732578        4.8995151042      -23.4143991450
 O         1.7704519200        3.7463080187      -22.9688060517
 C         3.5971786843        5.3146625118      -23.2656458633
 C         4.1756824259        5.0507396110      -21.8765538058
 C         4.7481320648        3.6435848611      -21.6644310275
 O         4.8074513336        2.7643213123      -22.4563529025
 C         5.4586478307        3.3485925030      -20.0838480389
 C         4.7118084223        2.1307400471      -19.6190226039
 O         3.5018171653        2.3213090574      -19.4240067561
 C         5.4492367119        0.7995267708      -19.4686311102
 C         4.4467080949       -0.3720797868      -19.3351611629
 C         3.5062581056       -0.6019635926      -20.5408368033
 O         3.7651586684       -0.2147417396      -21.6486622298
 C         2.2261438121       -1.4583325578      -20.3064061249
 C         1.0798301363       -0.4641215814      -19.7816219990
 O         0.8856804299        0.6568434913      -20.3353791750
 C        -0.0944903553       -1.0733830436      -18.9812742376
 C        -1.0090334493        0.0041090493      -18.2984177876
 C        -2.4540782731       -0.4252169986      -18.0417803923
 O        -2.9401068721       -1.3272719736      -18.5860455303
 C        -3.3235209653        0.5368964966      -16.9733357357
 C        -2.6061284360        0.9859444914      -15.5421593715
 O        -1.4059580705        0.8642532208      -15.4571577649
 C        -3.5656593996        1.3904495371      -14.3253074733
 C        -2.9126229256        1.3899642521      -12.9667954175
 C        -3.0078301338       -0.0002742314      -12.2918850898
 O        -3.5875687781       -0.9552746773      -12.7764776128
 C        -2.2048039233       -0.1397794670      -10.9274519660
 C        -3.1875518177       -0.3180489360       -9.7111780351
 O        -3.2717923342        0.4661709390       -8.7898190830
 C        -4.1847025931       -1.5262158466       -9.7856021097
 C        -5.2904947350       -1.4524855999       -8.7262283083
 C        -5.8664049328       -2.8602028616       -8.4385376170
 O        -5.3234830686       -3.8976779852       -8.7690648588
 C        -7.2773097668       -2.8810645984       -7.7155417361
 C        -7.1510657214       -3.9464067826       -6.5276590153
 O        -6.8817572015       -3.5300187426       -5.3823482060
 C        -7.4714234207       -5.3445282603       -6.9033698981
 C        -7.7040866840       -6.3497839646       -5.7424568426
 C        -8.7683481595       -5.8176232789       -4.6653628360
 O        -9.2059457795       -4.7402835252       -4.7906425809
 C        -8.9343868046       -6.7173305251       -3.3425726001
 C        -7.4920955927       -7.0786238726       -2.7837189077
 O        -6.6005070062       -6.2776445062       -2.8303902049
 C        -7.3719408510       -8.4148029522       -1.9773168255
 C        -5.8916972854       -8.7809728378       -1.9961831690
 C        -5.4866334062       -9.2108339880       -3.4708633265
 O        -6.2348266091       -9.0486205894       -4.3855477657
 C        -4.0364921799       -9.8281033792       -3.7460204786
 C        -3.2819027580       -8.5931667548       -4.3440664561
 O        -2.6640491953       -7.7140556976       -3.7263575679
 C        -3.6471819167       -8.2201914701       -5.8131990508
 C        -3.3781516663       -6.7774431818       -6.1842335843
 C        -3.6000110011       -5.7415580960       -5.0813004186
 O        -4.5536889359       -5.8279933449       -4.3966033683
 C        -2.5116512970       -4.4857138769       -4.7763393996
 C        -3.0821304900       -3.1180457064       -5.0104993754
 O        -4.2019337490       -2.8773906286       -4.5689645336
 C        -2.3233801786       -2.0050367349       -5.9314252504
 C        -2.7594487761       -0.6075812332       -5.5645073394
 C        -1.8995737401       -0.0264585554       -4.4205621150
 O        -0.6939205636       -0.1627057964       -4.4330884072
 C        -2.5983828189        1.0370982053       -3.4823576575
 C        -3.4338232199        0.3138967663       -2.3785645253
 O        -4.6879125448        0.4224096904       -2.3347923175
 C        -2.7131093636       -0.4925728290       -1.3078426613
 C        -3.7660981613       -0.9368963876       -0.2568722777
 C        -4.9462738738       -1.7021194039       -0.8129840880
 O        -4.7774912940       -2.5945031840       -1.6171190902
 C        -6.5086173978       -1.2819306444       -0.4303588095
 C        -7.3333190403       -1.4477104500       -1.8102390074
 O        -7.6030052769       -2.6011001483       -2.2285221115
 C        -7.9533701250       -0.1543801269       -2.4196857980
 C        -8.8906865247       -0.3968262040       -3.6662399959
 C       -10.3717278765       -0.1900154145       -3.2125742412
 O       -10.7041159677        0.1867347090       -2.1237589688
 C       -11.4813353832       -0.5131401575       -4.2983554029
 C       -11.6998451371        0.8456134436       -5.0560407053
 O       -10.8975275544        1.0766726434       -5.9351807761
 C       -12.9961264434        1.7120393294       -4.6901137585
 C       -10.9592716776       -1.5060214371       -5.3980571045
 C       -12.7131194989       -1.0340122823       -3.5414058632
 C        -7.0573727387       -2.3659304790        0.5043543674
 C        -6.5884247318        0.1305953756        0.1449769511
 C        -1.4730736861        1.9903271523       -2.7746246724
 C        -3.5529648704        1.9697703185       -4.3667256242
 C        -2.0043132477       -4.7859391929       -3.2267207994
 C        -1.2924702980       -4.6787789933       -5.6620459488
 C        -3.3187700972      -10.4298867343       -2.3939989974
 C        -4.0732594288      -10.9945568012       -4.7224725220
 C        -9.6471084375       -5.7914222633       -2.3450760496
 C        -9.8268337608       -7.9414442257       -3.7003681535
 C        -7.4261930611       -1.4814678099       -7.0672159233
 C        -8.3935518673       -3.1792264959       -8.8637660937
 C        -1.1786748762       -1.3653299912      -11.1448740279
 C        -1.2431438680        1.2198109014      -10.5849881602
 C        -3.6311396052        1.9282013888      -17.5515855194
 C        -4.7316640229       -0.1131945761      -16.7524535091
 C         1.7826855235       -2.0440952848      -21.6822211679
 C         2.6157649244       -2.5298688258      -19.2453277759
 C         7.0399089812        3.2821270818      -20.4013002135
 C         5.3089762279        4.5589554568      -19.0857544767
 C        -0.1321255530        4.9427465223      -24.6237807433
 C         1.8094759127        6.1249113477      -25.6110460539
 H        -0.0169433048        7.8196739551      -21.6817212224
 H        -0.4821254403        6.2934692387      -22.3244563063
 H        -1.0664295055        7.8178510093      -23.0598065137
 H         3.8382984094        6.3872178065      -23.4433625641
 H         4.1591581382        4.8258231878      -23.9746532667
 H         3.5276162378        5.4725510503      -21.0725765649
 H         5.0959047229        5.6886782969      -21.8776283696
 H         5.8978462011        0.8230160057      -18.5172443585
 H         6.1200475786        0.5236243676      -20.3804826028
 H         3.8315273560       -0.1612186226      -18.5366069011
 H         4.9161214092       -1.3433998243      -19.0318646259
 H         0.3312877331       -1.9201449440      -18.3518797495
 H        -0.5912465778       -1.5991750207      -19.8110122726
 H        -1.0425733414        0.9888658648      -18.8930841773
 H        -0.5222623560        0.3331146963      -17.4434896218
 H        -4.3471899930        0.6386885271      -14.4851134788
 H        -4.0576220479        2.3408577405      -14.5041474775
 H        -3.4562746249        2.1107308096      -12.2481168012
 H        -1.9075310861        1.7495342855      -12.8915516324
 H        -3.6291952204       -2.4501975694       -9.6274359375
 H        -4.4446380492       -1.6248186223      -10.9067069175
 H        -6.1861335157       -0.7662339397       -8.9913814052
 H        -5.0306105535       -1.0597005049       -7.7399088037
 H        -6.6421384059       -5.7412959510       -7.5968344600
 H        -8.4226813383       -5.4092027776       -7.5276721559
 H        -6.7977888156       -6.5865887823       -5.2495179534
 H        -8.0087453003       -7.3138176645       -6.1772335930
 H        -7.9948325575       -9.2200091872       -2.4664686335
 H        -7.8833367039       -8.2378271011       -0.9966319892
 H        -5.6613863427       -9.6096219617       -1.3292107249
 H        -5.2777286313       -7.8732667412       -1.7659825254
 H        -4.7101406568       -8.4522831503       -5.8749974826
 H        -3.0951099111       -8.7677462987       -6.5925139319
 H        -3.8514362207       -6.4094091492       -7.1690475718
 H        -2.3357288132       -6.7717308013       -6.4207511281
 H        -2.5470466657       -2.3103640980       -6.9793016370
 H        -1.2776858845       -2.1276473799       -5.6628988988
 H        -3.8795868616       -0.5360653501       -5.2438655872
 H        -2.6926506908        0.1009628155       -6.3408065971
 H        -1.9815497485        0.1355689779       -0.7853645527
 H        -2.0148999046       -1.2866498233       -1.5857306319
 H        -3.9373816846       -0.0705337366        0.4155933418
 H        -3.3282982106       -1.7318326629        0.3098236010
 H        -7.2358444632        0.5487869957       -2.6681466321
 H        -8.5980295658        0.2174469082       -1.5904635522
 H        -8.8266210236       -1.4035888167       -3.9478405196
 H        -8.8176641813        0.2529554511       -4.4602843326
 H       -13.1302325438        1.8782586230       -3.5694616647
 H       -13.8812746207        1.1774263568       -4.9675623249
 H       -13.0303815364        2.6722017459       -5.0484651253
 H       -10.0769076442       -1.0573865307       -5.8291180331
 H       -11.6510522639       -1.7178345804       -6.1963882556
 H       -10.7039808904       -2.4415991323       -4.8699852808
 H       -12.9990652397       -0.4132879023       -2.7099778479
 H       -12.4797177089       -2.0446909976       -3.2253156444
 H       -13.5956666087       -1.0058151861       -4.1496660490
 H        -7.9451424775       -2.0262270572        1.0880067300
 H        -6.2834273409       -2.7132065160        1.1874026973
 H        -7.3773665398       -3.2386907060       -0.1248969213
 H        -7.5538926776        0.4719765707        0.3679052173
 H        -6.1710283412        0.8998340182       -0.5352757619
 H        -5.9608623854        0.2030989173        1.0289610956
 H        -1.2418456927        1.7383080855       -1.7379229073
 H        -2.0296005886        2.9661718968       -2.8719680337
 H        -0.4652015529        2.0277877069       -3.3776078778
 H        -3.8457704017        2.8217442821       -3.7155875307
 H        -4.4493541854        1.5509645737       -4.7488477451
 H        -2.9804907755        2.4613635490       -5.1152324764
 H        -1.3848975373       -5.6884885408       -3.2443090845
 H        -2.7588212714       -4.8473682729       -2.4814540292
 H        -1.2536671832       -3.9565961194       -2.9471020612
 H        -0.9460544957       -5.7064609684       -5.5279718987
 H        -0.6343961674       -3.8462270256       -5.5575946776
 H        -1.6329555732       -4.6446895146       -6.7297328428
 H        -3.0819014081       -9.7510050412       -1.5458579042
 H        -2.3698140324      -10.8736753523       -2.8210545138
 H        -3.9458790482      -11.2891536283       -2.0802356781
 H        -4.6461134999      -10.7193780126       -5.5810549719
 H        -4.4284838350      -11.9147833375       -4.3295550448
 H        -3.0480950004      -11.1323720907       -5.0248788312
 H        -8.9628797395       -5.4116281699       -1.5762911948
 H       -10.4797026499       -6.1988697829       -1.7562991540
 H       -10.1244570852       -4.8689354439       -2.7691460509
 H       -10.5757070381       -7.6486429465       -4.3734547749
 H       -10.2843425091       -8.4721444979       -2.9283775041
 H        -9.2741214490       -8.6081604741       -4.3043818145
 H        -7.6367170093       -0.6857233528       -7.7577695626
 H        -6.6325247489       -1.0736793037       -6.5461418986
 H        -8.1934237749       -1.5101395878       -6.3491740869
 H        -8.3136897985       -4.2819230076       -9.0962756784
 H        -8.0680852102       -2.6337438438       -9.7056059003
 H        -9.3842448069       -2.8327965279       -8.5981650204
 H        -0.7221225989       -1.3080464199      -10.1717459964
 H        -0.4891155898       -1.1297132284      -11.9827993521
 H        -1.7817811211       -2.2083104679      -11.3190102273
 H        -1.9073097863        2.0350483253      -10.5888316953
 H        -0.3349407015        1.2462237384      -11.2812428258
 H        -0.7676788525        1.1126104117       -9.6633078656
 H        -2.6655101738        2.5676657789      -17.7135128405
 H        -4.3814603941        2.4382226161      -16.8845702969
 H        -4.0347995943        1.9065904035      -18.5383634854
 H        -4.5976319593       -0.8417249798      -15.9394359008
 H        -4.9576362692       -0.5718005065      -17.7526484709
 H        -5.3646703124        0.7122133876      -16.3510854791
 H         2.4284952569       -2.7554195171      -22.1349656686
 H         1.6783808159       -1.2054013384      -22.4160198689
 H         0.8210863065       -2.5587826373      -21.5985772367
 H         3.4195314949       -3.1305118973      -19.6730395611
 H         1.8117872646       -3.2366697664      -18.9647309580
 H         3.0628469112       -2.1460184285      -18.3190243911
 H         7.2795549624        2.4024785855      -21.0046659411
 H         7.5846546967        3.0781463840      -19.5119613522
 H         7.3308543482        4.2679958873      -20.9231350766
 H         5.7505383318        5.3011365456      -19.7849328311
 H         5.8957815218        4.3183408618      -18.1459859132
 H         4.2454897948        4.6699945571      -18.9630533840
 H        -0.5601384962        5.3924232190      -25.5917945983
 H        -0.9596352594        5.0554507280      -23.9528652702
 H         0.1419578447        3.8829966744      -24.7583674363
 H         2.7954881757        6.6256492342      -25.4271903176
 H         1.1602201554        6.8318578731      -26.0755442740
 H         1.9040810903        5.3152093043      -26.2174980503
 Na       -5.9058032070       -3.8746705924       -3.3048007665
 Na        2.3466026614        1.9208699084      -21.6542947097
