232

 C        -0.3763794777        7.2952578407      -22.5283040909
 C         0.9210378108        7.1360969056      -23.3475755111
 O         1.6676146543        8.0987289348      -23.4815035243
 C         1.1578347702        5.7723804052      -24.3542228095
 C         2.1094306278        4.8254984751      -23.5529656863
 O         1.6929328660        3.7423622137      -23.0743967465
 C         3.5179240813        5.3932231220      -23.2926491493
 C         4.1363780577        5.0421536648      -21.8589261406
 C         4.8398965927        3.6388249345      -21.6177602879
 O         4.7317196192        2.7341716895      -22.4363475292
 C         5.4139802684        3.4608982146      -20.2409750430
 C         4.6647756132        2.1940945528      -19.6745917024
 O         3.4665523242        2.2376745085      -19.4797203370
 C         5.4242125105        0.9204955378      -19.5783415519
 C         4.4741760467       -0.2552953990      -19.3642649168
 C         3.5191594511       -0.5597116409      -20.5397536989
 O         3.6051393269       -0.1879934998      -21.6972041061
 C         2.2357487438       -1.4906107022      -20.1981856498
 C         0.9579849725       -0.5053337539      -19.8316666583
 O         0.9362422474        0.5453150490      -20.3474012834
 C        -0.1140005193       -0.9913091124      -18.8275735277
 C        -1.0481319635        0.1431470768      -18.3231565014
 C        -2.5244404256       -0.3914458605      -17.8277086288
 O        -3.0414427973       -1.2342717111      -18.5394644862
 C        -3.3123688788        0.4879133788      -16.8758256749
 C        -2.5793345072        0.7150672592      -15.5449599446
 O        -1.3675487557        0.8073426015      -15.3885440524
 C        -3.5012847231        1.3628744700      -14.4559061230
 C        -2.9291628357        1.4278063411      -13.0534433569
 C        -2.8798335019        0.0840639331      -12.2919905038
 O        -3.4996489722       -0.8510559814      -12.7525893740
 C        -2.1638575320       -0.1733120151      -10.9139690052
 C        -3.2425462777       -0.3676339742       -9.8704218033
 O        -3.3425809549        0.4255251042       -8.9624338818
 C        -4.1085352680       -1.6434644070       -9.9069947401
 C        -5.2241250975       -1.4870534148       -8.8850539696
 C        -5.8739820498       -2.8127124516       -8.4037695258
 O        -5.2326503346       -3.8762049305       -8.5263185950
 C        -7.2357244893       -2.8844507939       -7.6790162340
 C        -7.2246343950       -3.9822762875       -6.5390866085
 O        -6.9590177592       -3.5425934304       -5.4200034845
 C        -7.3890227223       -5.4855250955       -6.8490694071
 C        -7.5752672272       -6.3924463285       -5.6621321691
 C        -8.5960496393       -5.8736422460       -4.6430845354
 O        -9.2741689694       -4.8276978097       -4.8093188793
 C        -8.8387523391       -6.7533115140       -3.4042728685
 C        -7.4786076986       -7.1182619889       -2.7371754705
 O        -6.6481251513       -6.2267711518       -2.7620474000
 C        -7.2450301174       -8.3550595269       -1.9953770092
 C        -5.7557945181       -8.8294435824       -1.9934233564
 C        -5.3863789784       -9.2147832567       -3.3832535780
 O        -6.1752984259       -9.0235703751       -4.2730098292
 C        -4.0060735678       -9.7591882220       -3.8976804287
 C        -3.3421187696       -8.5400783169       -4.4487835172
 O        -2.6015625609       -7.7996086761       -3.8514552926
 C        -3.6200883186       -8.3172943200       -5.9665432918
 C        -3.4114610438       -6.7938225679       -6.2705846898
 C        -3.6058345310       -5.7755126809       -5.0021565894
 O        -4.6663649518       -5.7220695434       -4.4214088385
 C        -2.4091472706       -4.6217112945       -4.7890897339
 C        -3.0892305774       -3.1533783589       -4.9633206053
 O        -4.2315841308       -2.8009983871       -4.7077654926
 C        -2.3582562215       -2.0479114846       -5.7866926844
 C        -2.7844986119       -0.5956731099       -5.4685784014
 C        -1.8381024084        0.1932670913       -4.4746198599
 O        -0.7058215298       -0.1037907764       -4.4235231960
 C        -2.5791308798        1.2555511720       -3.4594442053
 C        -3.3888256992        0.3714198198       -2.3340864915
 O        -4.6172587092        0.4779342000       -2.2680030236
 C        -2.8121278438       -0.6231063048       -1.2982977190
 C        -3.7788691370       -1.0143743589       -0.1824612267
 C        -5.0160582502       -1.6997872028       -0.8832204830
 O        -4.8379673299       -2.5612315122       -1.7317595240
 C        -6.4874465849       -1.3265618921       -0.4596249704
 C        -7.3617005146       -1.3350126242       -1.7653620390
 O        -7.5683348980       -2.4118737334       -2.3230870155
 C        -7.9213988607       -0.0696339384       -2.3518004919
 C        -8.8287975666       -0.2852351016       -3.5435836938
 C       -10.3712388730       -0.2465882921       -3.1899521049
 O       -10.7869448420        0.1347630672       -2.0743227530
 C       -11.5011219313       -0.5755059735       -4.2563575485
 C       -11.6764434162        0.7540635150       -4.9996362859
 O       -10.8300001614        1.2119212039       -5.7287270520
 C       -12.8463109505        1.5935300694       -4.6728689842
 C       -11.0920131756       -1.5032230972       -5.4169362597
 C       -12.8326760018       -1.0803585809       -3.6254231810
 C        -7.0143721700       -2.3912905213        0.5336486538
 C        -6.5000594581        0.0138460426        0.2205849282
 C        -1.5238001491        2.1440649818       -2.8589693896
 C        -3.6169899890        2.0727201866       -4.2398875322
 C        -1.9059307699       -4.8860720954       -3.3417703141
 C        -1.2130297646       -4.7237973053       -5.7892789221
 C        -3.3265710326      -10.3810745393       -2.5687854558
 C        -4.1659146172      -10.9092489938       -4.8672057986
 C        -9.5394223589       -5.9057465657       -2.2413812057
 C        -9.8130092491       -7.8805286449       -3.7710411896
 C        -7.5426664493       -1.5556874314       -6.9627753635
 C        -8.2956590173       -3.1043716764       -8.7066330438
 C        -1.2259709742       -1.3880402922      -11.0937742541
 C        -1.2648138516        1.0451858397      -10.5864030510
 C        -3.4487472437        1.8626269991      -17.7224735004
 C        -4.7260844595       -0.1125822899      -16.6646210381
 C         1.8606102887       -2.0779337973      -21.5115278726
 C         2.5760400881       -2.6390980023      -19.2601731995
 C         6.9777629556        3.1298420862      -20.3577521681
 C         5.2531205853        4.4510311235      -18.9306687586
 C        -0.1796707059        4.9748932269      -24.6808460260
 C         1.9485357871        6.1217544261      -25.6479898974
 H         0.0311792232        7.8430887955      -21.6549484131
 H        -0.6920006956        6.3311881633      -22.1520904527
 H        -1.1332741073        7.9128766942      -23.0149305809
 H         3.6057099184        6.4613056545      -23.2988535943
 H         4.1479365887        5.1207403601      -24.1191539145
 H         3.2451404040        5.0846219135      -21.2314701594
 H         4.7127776769        5.8798584333      -21.5629557771
 H         6.1601838479        0.9757581737      -18.6824572295
 H         5.7965950283        0.7038734685      -20.5688753155
 H         3.9019394130       -0.1513790861      -18.5054944126
 H         4.9960648562       -1.2334783827      -19.2586179609
 H         0.5240202917       -1.5060439726      -18.1020699366
 H        -0.7213501343       -1.8331721435      -19.2787550899
 H        -1.2139073561        0.8596671233      -19.1422781286
 H        -0.4917959531        0.7537425420      -17.5641157584
 H        -4.4933004147        0.9661533345      -14.6103051941
 H        -3.5810185605        2.4377926010      -14.8204454544
 H        -3.4908284116        2.1311514651      -12.4801173059
 H        -1.9124332283        1.8425772574      -12.9941151891
 H        -3.5464492775       -2.6020770838       -9.6972458248
 H        -4.3242823419       -1.7551572658      -11.0223591057
 H        -5.9837987826       -0.9196246521       -9.2086084779
 H        -4.9306652201       -0.9387633875       -7.9525845681
 H        -6.4423318128       -5.8588208343       -7.3469418510
 H        -8.2063677521       -5.7874622676       -7.5756192967
 H        -6.6175437106       -6.6444088225       -5.1572550738
 H        -7.9284319616       -7.3265799996       -6.0215348802
 H        -7.9748850837       -9.1374957584       -2.3618392573
 H        -7.6113555498       -8.1638568591       -0.8924614209
 H        -5.7103843467       -9.7180929962       -1.3581427445
 H        -5.0240490017       -8.0254146004       -1.6636603647
 H        -4.6656270753       -8.5294878070       -6.0805876828
 H        -3.0111683090       -8.8730476121       -6.6175394584
 H        -4.2694924002       -6.3610050499       -6.9395464811
 H        -2.4961220961       -6.6247808724       -6.8876781346
 H        -2.8040363568       -2.3140328089       -6.6802450657
 H        -1.2481968952       -2.1888178144       -5.8306574542
 H        -3.8480918794       -0.5645853006       -5.0393539149
 H        -2.8793934565       -0.0008762807       -6.4094647447
 H        -1.8510934764       -0.3558002405       -0.8843681738
 H        -2.5039375301       -1.5328967470       -1.8227583179
 H        -4.0708580931       -0.0049530204        0.1814172120
 H        -3.3364741209       -1.5996452115        0.6236722235
 H        -7.0431010848        0.4357416885       -2.8198475301
 H        -8.3350188432        0.5418635943       -1.6367039940
 H        -8.6373278029       -1.2350090047       -3.9937811902
 H        -8.8005557501        0.4959089138       -4.2496961286
 H       -13.2554628041        1.4426223608       -3.6868993528
 H       -13.6646999490        1.2063763289       -5.3688020073
 H       -12.7457618315        2.6770444462       -4.7826225588
 H       -10.2016977487       -1.1157445141       -5.6893779041
 H       -11.6774597665       -1.5182675894       -6.3179208156
 H       -10.9990555675       -2.4916039660       -5.0013534323
 H       -13.1988251636       -0.5251414543       -2.7606427805
 H       -12.8209268327       -2.1577407556       -3.5097954668
 H       -13.5747151237       -0.8351686594       -4.3081450067
 H        -8.1261086952       -2.2130018333        0.5220568723
 H        -6.6343776906       -2.3373410718        1.6009968957
 H        -6.9360018723       -3.3841467734        0.0703982130
 H        -7.4722253608        0.4378250297        0.3619236126
 H        -5.8797720370        0.7856907364       -0.3190272688
 H        -6.0495593610       -0.0178461770        1.2173329805
 H        -0.9748450066        1.6903225730       -2.0040622153
 H        -2.0108511646        3.0684898997       -2.7151331851
 H        -0.7875547270        2.3307602250       -3.6864334173
 H        -4.0369339603        2.6646722098       -3.5088548595
 H        -4.4113869547        1.4979311115       -4.6721069596
 H        -3.2205561995        2.7108013813       -4.9664902716
 H        -1.2713756536       -5.7295903340       -3.1686001547
 H        -2.7318644467       -4.9300679154       -2.6828853781
 H        -1.3666473956       -3.9970710199       -3.0868957807
 H        -0.8670130794       -5.7589336564       -5.7904405866
 H        -0.5318175344       -3.8661360215       -5.5863268177
 H        -1.5542339208       -4.5085455272       -6.8145778272
 H        -3.3299781056       -9.7337437751       -1.6819621724
 H        -2.2828986645      -10.6701183307       -2.7722610537
 H        -3.8534951883      -11.3138704616       -2.4566780966
 H        -4.7957340533      -10.6221947719       -5.7024991422
 H        -4.6067189921      -11.7657728427       -4.4234007405
 H        -3.2057214314      -11.1605665727       -5.2269767573
 H        -8.8648023475       -5.8131425057       -1.3883827730
 H       -10.4592969631       -6.3208471605       -1.8404142566
 H        -9.8604869297       -4.9283464424       -2.4351461528
 H       -10.7001407652       -7.5587796958       -4.2752298540
 H       -10.0726434787       -8.4779065137       -2.8710578060
 H        -9.4387567020       -8.5546479265       -4.4410579596
 H        -7.4968995100       -0.6805812023       -7.5748062133
 H        -6.9244137509       -1.1987491833       -6.1027632004
 H        -8.5668391386       -1.7177357467       -6.4916709168
 H        -8.0615107776       -4.0631648984       -9.2663716505
 H        -8.2581924626       -2.2372724064       -9.4166220080
 H        -9.2600485235       -3.0736958573       -8.1943958555
 H        -1.0719334224       -1.4901990291      -10.0745149344
 H        -0.3945136403       -1.2975338096      -11.7902423240
 H        -2.0485073218       -2.1460234241      -11.3862301959
 H        -1.8959902570        1.8608655773      -10.2652557429
 H        -0.6089046282        1.1955215815      -11.3618815042
 H        -0.5435394566        0.7655101159       -9.7901025795
 H        -2.5627879823        2.2803105681      -18.0120843016
 H        -4.1478220323        2.6007669682      -17.2426855282
 H        -3.9681502946        1.5577099705      -18.7282034400
 H        -4.7311880435       -0.7719279600      -15.8087966499
 H        -4.9067362834       -0.5897230839      -17.6636201695
 H        -5.3464324721        0.7889350366      -16.3752198402
 H         2.6233460754       -2.6990320934      -21.9660693515
 H         1.5862036339       -1.3166704466      -22.2554607760
 H         1.0736210015       -2.7042061461      -21.3924520749
 H         3.6217582746       -2.9742132691      -19.4315991285
 H         1.9348039616       -3.4831082350      -19.3193583842
 H         2.6022002221       -2.3234865009      -18.2086173994
 H         7.1174570081        2.0458028207      -20.7034137756
 H         7.3923073517        3.0017071267      -19.2932252270
 H         7.5329171837        3.8564961796      -21.0007451599
 H         5.6981485710        5.4197886400      -19.0990492543
 H         5.7729004246        3.8165122500      -18.2152678971
 H         4.2068623849        4.3426284517      -18.7182615158
 H        -0.7701440192        5.5264650016      -25.4898032499
 H        -0.9154797194        4.9662861867      -23.8577847595
 H         0.1342678832        3.9774978240      -25.0148038955
 H         2.7329586872        6.7882247124      -25.3727031443
 H         1.3208381924        6.5963249770      -26.3495096119
 H         2.3759951714        5.1676154072      -26.0605191585
 Na       -5.9599935317       -3.7454592115       -3.4084413304
 Na        2.3704722556        1.9253807448      -21.7067595804
