232

 C        -0.4559769359        6.9918937713      -22.5834847921
 C         0.8496674960        7.1138132808      -23.3638198709
 O         1.7322949403        7.9355057852      -23.3062972668
 C         1.0945066295        5.8524192951      -24.2840532272
 C         2.0711107206        4.8739120396      -23.4310803945
 O         1.5790905618        3.7900853566      -23.1122240748
 C         3.4987934502        5.2804660966      -23.0698608670
 C         3.9260092339        5.1326883131      -21.6093038251
 C         4.5953842521        3.8592663055      -21.5293388454
 O         4.6521118611        3.0206006964      -22.4586185876
 C         5.3700034192        3.4000584056      -20.1697428735
 C         4.6351350108        2.0567791113      -19.7489657466
 O         3.4174735693        2.1659776637      -19.6721065263
 C         5.3498760640        0.6364486740      -19.7733499860
 C         4.4452226476       -0.5280922470      -19.3303868950
 C         3.3319972104       -0.7364628428      -20.4359469549
 O         3.3719066473        0.0193225248      -21.3871150118
 C         2.1482466777       -1.6029729744      -20.1788710916
 C         0.9764515080       -0.6032117354      -19.8046247224
 O         0.7672970203        0.5244251347      -20.3551074483
 C         0.0374978301       -0.9601085310      -18.6435309827
 C        -1.0576569727        0.0472068255      -18.3599782715
 C        -2.3686296431       -0.4539345737      -17.9404788609
 O        -2.8086403385       -1.4287344861      -18.4651662705
 C        -3.2550377893        0.6480134671      -17.0032738690
 C        -2.5551486572        0.8553573989      -15.5336778887
 O        -1.4330971936        0.4561716636      -15.3365896466
 C        -3.3973750091        1.4595911404      -14.3765382066
 C        -2.6673279345        1.4272637256      -13.0647515089
 C        -2.8029095149        0.0948357604      -12.3882448812
 O        -3.4553507758       -0.7470315414      -12.9531632576
 C        -2.1121959320       -0.2466743736      -11.0096977718
 C        -3.2456636186       -0.4575945725       -9.9467911913
 O        -3.5322672401        0.4443852128       -9.2015876491
 C        -4.0944183456       -1.7482437337       -9.9572252536
 C        -5.3679989814       -1.6355574063       -9.1744022560
 C        -5.7613077234       -2.8906889754       -8.2875166891
 O        -5.0246760217       -3.8136167532       -8.1007911675
 C        -7.1425289626       -2.9140544276       -7.6048320636
 C        -7.2163945164       -3.9951471148       -6.5015812616
 O        -7.0705381119       -3.6322659336       -5.3256593900
 C        -7.3128870575       -5.4166204310       -6.8784366528
 C        -7.3581247309       -6.2683652544       -5.5611454476
 C        -8.5862088637       -5.8503036539       -4.6587847929
 O        -9.4192885331       -5.0850407985       -4.9456348599
 C        -8.7188508924       -6.7235000848       -3.2547402488
 C        -7.3809426414       -6.9630004164       -2.5578215113
 O        -6.4473778038       -6.1795367785       -2.4416752864
 C        -7.1039600974       -8.3224629155       -1.8025171592
 C        -5.6731423344       -8.8878334317       -2.0821634325
 C        -5.4135448324       -9.2251770742       -3.5386782398
 O        -6.2482541083       -8.9573835843       -4.3823776750
 C        -4.0381209779       -9.6888248645       -4.0170888381
 C        -3.2891425513       -8.4567820065       -4.6648722093
 O        -2.4043416144       -8.0131005932       -3.9321181581
 C        -3.7341876461       -8.0335782082       -6.0173985106
 C        -3.5391488971       -6.5865220372       -6.4717442239
 C        -3.6030708176       -5.6275732988       -5.3424196986
 O        -4.5481246577       -5.5464687336       -4.5656353982
 C        -2.4032727771       -4.5774606123       -5.0615991702
 C        -3.0141435472       -3.1591861571       -5.1079217292
 O        -4.1269034902       -3.0161901998       -4.6436791694
 C        -2.1449602938       -1.9624894788       -5.4951091371
 C        -2.8690980747       -0.6330352203       -5.2029980534
 C        -2.0096182328        0.2295059457       -4.3697813689
 O        -0.7780041498        0.0748819180       -4.3419921929
 C        -2.6479347085        1.2967470296       -3.4046037256
 C        -3.4936634229        0.4267434671       -2.3077751413
 O        -4.6924073947        0.6479420161       -2.1581834235
 C        -2.6978721895       -0.6037330231       -1.5323839623
 C        -3.6447249797       -1.0366052372       -0.4391894202
 C        -4.9605319476       -1.7014439215       -0.9736714486
 O        -4.9552299617       -2.5572709492       -1.8110940923
 C        -6.4561046360       -1.3067542711       -0.5111105846
 C        -7.3465822234       -1.1974832929       -1.7680812453
 O        -7.5376510252       -2.1949753705       -2.4581358953
 C        -8.0614555417        0.1124426617       -2.2742334192
 C        -8.9334267209       -0.1248118859       -3.5388564186
 C       -10.4917054687       -0.3193750678       -3.0951466054
 O       -10.8869170434       -0.2015004125       -1.9965967402
 C       -11.4891649188       -0.5393470975       -4.2380426613
 C       -11.5998070468        0.8352163092       -4.8338374558
 O       -10.6100132733        1.3713531513       -5.3279578257
 C       -12.8390815468        1.6554939272       -4.6755679182
 C       -11.0549007056       -1.6623613213       -5.1895912893
 C       -12.8700122573       -1.1441879716       -3.6301960187
 C        -6.9256514746       -2.4744226683        0.3380074436
 C        -6.5546649046       -0.0168281639        0.3472011303
 C        -1.4442451453        2.1665382759       -2.7972652862
 C        -3.7066531527        2.1512413995       -4.1429012063
 C        -2.0469752437       -4.6854621027       -3.5436841745
 C        -1.1492124771       -4.8882232817       -5.9922071742
 C        -3.0839420631      -10.2396949191       -2.9482564491
 C        -4.3265235867      -10.8929730589       -5.0009230519
 C        -9.5511645401       -5.9706097403       -2.2161523013
 C        -9.4607520693       -7.9704516011       -3.7355035882
 C        -7.4160531565       -1.5692997100       -6.9655252967
 C        -8.2596127399       -3.1535483459       -8.7362031282
 C        -1.3139772801       -1.6132392560      -11.1616201379
 C        -1.1582270683        0.9130806601      -10.5150221345
 C        -3.4649344241        2.0080336782      -17.6822083856
 C        -4.5865920914       -0.1204754302      -16.7078635900
 C         1.7016822887       -2.2897943254      -21.4948039262
 C         2.4210486670       -2.5533923851      -19.0294905284
 C         6.9058642003        3.2205108364      -20.4138120401
 C         5.1294715039        4.5665174990      -19.1344303362
 C        -0.2500907415        5.1563601526      -24.7747431097
 C         1.9219650055        6.3728946400      -25.5330404423
 H        -0.5486321815        7.6164913754      -21.6751333589
 H        -0.7264345424        5.9393352971      -22.3119619307
 H        -1.0824098135        7.3344375841      -23.4565248631
 H         3.8124106622        6.3261840792      -23.3892282591
 H         4.2618263410        4.6648803143      -23.6254024129
 H         3.0907082099        5.2280602855      -20.9033050937
 H         4.7137809260        5.9183606293      -21.3481354184
 H         6.2360348152        0.6284677967      -19.2725149977
 H         5.4143115133        0.5049020598      -20.8984658462
 H         3.9206441450       -0.2046521432      -18.3765803192
 H         4.9467394310       -1.5003835376      -19.1377643040
 H         0.7128198256       -1.1966071162      -17.7998011650
 H        -0.4492846396       -1.8959136858      -18.8237475871
 H        -1.3079911453        0.5531156864      -19.3179060390
 H        -0.7714147354        0.8614961990      -17.7299920415
 H        -4.3319681683        0.8709216686      -14.3812076990
 H        -3.6267325422        2.4663782486      -14.7082624258
 H        -3.1545994461        2.2093721712      -12.4120634466
 H        -1.6126796521        1.6478076397      -13.0882180328
 H        -3.5206778946       -2.5570368318       -9.5730645690
 H        -4.1592145113       -1.9825249515      -10.9920947912
 H        -6.3257490664       -1.3053436336       -9.8026681805
 H        -5.2899365016       -0.8578683125       -8.4712335585
 H        -6.5133407491       -5.6883902957       -7.5091915981
 H        -8.1704466755       -5.6032221263       -7.4445458443
 H        -6.4339757089       -6.0800947104       -5.0249109728
 H        -7.3616682580       -7.3974479296       -5.7611970206
 H        -7.8475712013       -9.0279149487       -2.0501613735
 H        -7.1214554539       -8.2535514480       -0.7773101726
 H        -5.6319399626       -9.7533820475       -1.4159683220
 H        -4.9165926915       -8.1935736220       -1.8111256443
 H        -4.8396531629       -8.1929859274       -5.9822537939
 H        -3.2106842945       -8.6503615292       -6.8083514290
 H        -4.3416671586       -6.3437753851       -7.0985311682
 H        -2.6259243190       -6.4282155072       -7.0042507730
 H        -1.8839617988       -2.1921226529       -6.5914394006
 H        -1.2504031298       -2.0232777184       -4.9371981032
 H        -3.8056205746       -0.7292921614       -4.6827972890
 H        -3.0539745453       -0.1259009928       -6.1337998061
 H        -1.7308478958       -0.2390693091       -1.1441080246
 H        -2.3610261706       -1.5036451341       -2.0738214662
 H        -3.8539276746       -0.1624663015        0.1750117586
 H        -3.1628416169       -1.8458945480        0.1405514844
 H        -7.3432109014        0.9084837873       -2.4511315410
 H        -8.8728589064        0.4771365731       -1.4934665159
 H        -8.7330336837       -1.0972773729       -4.0994811165
 H        -9.0005565788        0.7475641781       -4.2980876497
 H       -13.4359696338        1.4771621752       -3.7155712276
 H       -13.5061264665        1.7067841346       -5.5133583831
 H       -12.4464572795        2.6452237103       -4.5356566985
 H       -10.4139653623       -1.2058267109       -5.9807289461
 H       -11.9374465057       -1.9293405178       -5.7839631578
 H       -10.7434555847       -2.5788595215       -4.6533119018
 H       -13.1191991085       -0.5233010473       -2.7864224161
 H       -12.6352022531       -2.1810762803       -3.3789810941
 H       -13.8314211475       -1.1227829169       -4.2242270241
 H        -7.9159713469       -2.8554470191        0.1455168354
 H        -6.8573633656       -2.1851505114        1.3558924787
 H        -6.3477476252       -3.3702134330        0.0493588889
 H        -7.5932616905        0.0681259353        0.7369191046
 H        -6.2784452079        0.8916165693       -0.1912922136
 H        -5.9340386668        0.0906843159        1.2563131992
 H        -0.6397878699        1.5318790091       -2.6753422398
 H        -1.8180248624        2.6449291185       -1.8902399408
 H        -1.2876142779        3.1171549142       -3.3384518550
 H        -4.2867774434        2.7907367744       -3.3647810997
 H        -4.4014935032        1.6469421732       -4.8220504699
 H        -3.1480152893        2.7969273473       -4.8631934320
 H        -1.7495538684       -5.7193884598       -3.3911791356
 H        -2.9163973278       -4.6187871761       -2.9070422268
 H        -1.2310845311       -3.9715311320       -3.2156219047
 H        -0.8549587472       -5.9187093453       -5.7553275623
 H        -0.4201204894       -4.2367441893       -5.6070935045
 H        -1.1738174982       -4.6819745784       -7.0492087375
 H        -2.7415215999       -9.4362801526       -2.3398986777
 H        -2.1802010480      -10.6496332395       -3.3586942378
 H        -3.5196498980      -11.0968222158       -2.4410802510
 H        -5.1677252539      -10.6507413000       -5.6536316653
 H        -4.7261305335      -11.7075425035       -4.3573094603
 H        -3.4671851499      -11.2619085409       -5.6232059473
 H        -9.1308517087       -5.9691505754       -1.2434146212
 H       -10.5793930741       -6.2289231226       -2.2366806920
 H        -9.6726159669       -4.8953110305       -2.4469064190
 H       -10.5031824662       -7.7415597088       -4.0981192794
 H        -9.4967336146       -8.7891798890       -3.0042309043
 H        -9.0408022879       -8.4884987289       -4.6846252898
 H        -7.0147260396       -0.6955742269       -7.5790441007
 H        -6.9476073038       -1.3220092635       -6.0115120174
 H        -8.4546277028       -1.4617629892       -6.7218365754
 H        -7.8283969468       -3.5879742909       -9.6471161833
 H        -8.7055222557       -2.2162200704       -9.0230088108
 H        -9.0339105249       -3.7181226975       -8.1960431896
 H        -1.2004949692       -1.9922431014      -10.1118471136
 H        -0.4642416003       -1.1306779586      -11.6115952973
 H        -1.7557014242       -2.2596701892      -11.8207043185
 H        -1.8086703480        1.6691824809      -10.0552713456
 H        -0.3292574096        1.3093021958      -11.2658014771
 H        -0.6036359198        0.4849010361       -9.7009319878
 H        -2.4712011960        2.6416172571      -17.6256074898
 H        -4.2096298681        2.6008533755      -17.1246908414
 H        -3.8545469670        2.0123040625      -18.6291774095
 H        -4.3867255188       -0.8975901336      -15.9976586000
 H        -4.8538224088       -0.5017667742      -17.6402637633
 H        -5.1930401214        0.5560517794      -16.2278774402
 H         2.4940566280       -2.8467732953      -21.9555156214
 H         1.3646956753       -1.5449832665      -22.2280231788
 H         0.8389498209       -3.0194889036      -21.4239570532
 H         3.3513554707       -3.0589809968      -19.0774431617
 H         1.6165928958       -3.3116487354      -19.0097783187
 H         2.3571296033       -2.0861304032      -18.0668411285
 H         7.1144707421        2.8436477983      -21.3713428663
 H         7.3413522867        2.5586577260      -19.7566580957
 H         7.3444225114        4.2129304107      -20.2902097580
 H         5.7854015599        5.3232797773      -19.4881343904
 H         5.5111499778        4.2154230442      -18.2065407708
 H         4.0953427125        4.7456615313      -19.0909984602
 H        -1.0338225080        5.9072917625      -24.8458501853
 H        -0.6022811838        4.5133641867      -24.0006032315
 H        -0.0428574929        4.6508195195      -25.7185585193
 H         2.3765994868        7.3933522729      -25.2741778942
 H         1.2034907758        6.5270207835      -26.3832831799
 H         2.6730684903        5.6713705461      -25.7677665817
 Na       -6.1100249964       -3.9940490108       -3.3511917566
 Na        2.4105884386        1.9499996802      -21.8631809085
