232

 C        -0.8493063345        6.8360443216      -22.6730219800
 C         0.5295308595        7.0253154260      -23.2286017321
 O         1.3865486869        7.7740358292      -22.7521846473
 C         1.0993790642        5.9349836423      -24.2595035274
 C         1.9749562800        4.9069695348      -23.4003572012
 O         1.4785779375        3.9015812810      -22.8314110948
 C         3.3549141872        5.4495026241      -23.0421433955
 C         3.8302409636        5.1234270202      -21.5683197518
 C         4.4535375116        3.7654299119      -21.5019895846
 O         4.3934324670        2.9724535065      -22.4298504089
 C         5.1795172368        3.2767979666      -20.2076987138
 C         4.4408580812        1.8539133409      -19.7798750242
 O         3.2413775812        1.9750444385      -19.6074180756
 C         5.2595927446        0.6358005851      -19.8419193784
 C         4.4905277093       -0.6540677612      -19.4588937833
 C         3.3308736107       -0.7296579006      -20.4976693914
 O         3.5593498776       -0.3533632079      -21.6085225822
 C         2.0520615900       -1.4453833109      -20.1441031421
 C         0.9781026788       -0.3838460229      -19.8779014780
 O         0.7551547063        0.6086516247      -20.6077828173
 C         0.0751946923       -0.6928972887      -18.7083971529
 C        -1.0171450801        0.3137086975      -18.5527717347
 C        -2.3114087054       -0.2972095145      -17.8431804725
 O        -2.4537577478       -1.4569374000      -17.7880755777
 C        -3.2533045071        0.5929801589      -16.9259441376
 C        -2.5176608701        0.7006112592      -15.5662906647
 O        -1.5838945921       -0.0418002330      -15.3110064633
 C        -2.9815977346        1.6469666628      -14.4290566922
 C        -2.3183980697        1.2614248513      -13.1049851681
 C        -2.7039002197       -0.0769760990      -12.5081792483
 O        -3.5206263312       -0.7206742141      -13.1262117525
 C        -2.0507623001       -0.5863040186      -11.1646868539
 C        -3.3339618146       -0.7094940373      -10.2252978022
 O        -3.8240030645        0.2580777138       -9.7130225510
 C        -4.0354099098       -2.0537170586      -10.1063500140
 C        -5.3959055922       -1.9610413763       -9.5378659441
 C        -5.5415323333       -2.7706320088       -8.2226704007
 O        -4.6312335853       -3.4286120552       -7.7009521753
 C        -7.0859669246       -2.7607712366       -7.6649301487
 C        -7.1170341562       -3.8312074224       -6.4550291590
 O        -6.9536477268       -3.3940162623       -5.2991249378
 C        -7.3487959759       -5.3274080948       -6.6802590544
 C        -7.2927006295       -6.2882130842       -5.4876000085
 C        -8.5181118687       -6.1443890455       -4.6013577492
 O        -9.4690437889       -5.4825189506       -4.9231582021
 C        -8.5440195925       -7.0074175302       -3.1884731226
 C        -7.2277273945       -7.0525353562       -2.3819239624
 O        -6.6105870171       -6.0203231413       -2.1796941402
 C        -6.7443827315       -8.3230025773       -1.6587801336
 C        -5.3716718481       -8.7495563038       -2.2213315066
 C        -5.4454773463       -9.0781855409       -3.6576802446
 O        -6.4021887290       -8.7831936740       -4.2871538739
 C        -4.0668761431       -9.6459670310       -4.3467702387
 C        -3.3590521207       -8.4922360561       -5.1376375789
 O        -2.2759355764       -8.1265842772       -4.7229183096
 C        -4.0320201751       -7.8327298295       -6.3242518860
 C        -3.4409548486       -6.3820191331       -6.6084122043
 C        -3.4977457991       -5.4670425636       -5.3983677028
 O        -4.4269312297       -5.6816120748       -4.6504429084
 C        -2.4201418517       -4.3918165087       -5.0477501043
 C        -3.1350525665       -2.9995999310       -4.9896835426
 O        -4.3244884520       -2.9462306748       -4.7628013015
 C        -2.2387066813       -1.7774746602       -5.5338519402
 C        -2.7304519662       -0.3285433917       -5.1267245210
 C        -1.8435366717        0.4235958483       -4.1138525377
 O        -0.6565939082        0.3840815154       -4.1373245134
 C        -2.7007247496        1.6094537459       -3.3353076542
 C        -3.6827157362        0.7370520575       -2.3779163787
 O        -4.9053899900        0.8719660013       -2.3707520227
 C        -2.9444011027       -0.3249483312       -1.5066172903
 C        -3.6782938831       -1.1231351718       -0.4597226142
 C        -4.8727204142       -1.8289669287       -1.1080124621
 O        -4.5008378174       -2.6671041946       -1.8978598965
 C        -6.3442586518       -1.5939261113       -0.5548367358
 C        -7.3090426847       -1.3992376758       -1.8239520761
 O        -7.3301243837       -2.1555082408       -2.8133112495
 C        -8.1187292453       -0.0626703550       -1.8940172115
 C        -9.0761993251        0.1595853441       -3.0692840771
 C       -10.5036367038       -0.3996234241       -2.6974009344
 O       -10.8665929203       -0.9826600128       -1.6990104438
 C       -11.6156612687       -0.3889971544       -3.9804682578
 C       -11.6487719009        0.9413832927       -4.7069344880
 O       -10.6497272499        1.3956231529       -5.2597282025
 C       -13.0109323729        1.7122336112       -4.6813693643
 C       -10.9822514096       -1.3896664702       -5.0021511954
 C       -12.9529869550       -0.8829810305       -3.4798075068
 C        -6.9124090824       -2.8666318042        0.2191934613
 C        -6.3113264412       -0.3779142459        0.3495167721
 C        -1.7277127472        2.4419633837       -2.4777656158
 C        -3.5906899156        2.4661976054       -4.2792133270
 C        -1.9046326237       -4.8986225065       -3.6293760514
 C        -1.2619159505       -4.5241397560       -6.0274412234
 C        -2.9437136709      -10.0878498066       -3.4167221215
 C        -4.3750705347      -10.8036535948       -5.3055870500
 C        -9.4043485787       -6.1162595041       -2.1450532840
 C        -9.3275144084       -8.2947974992       -3.4547245130
 C        -7.3791301544       -1.3119924592       -7.1448547805
 C        -8.0805421492       -3.2293239847       -8.7309710417
 C        -1.2136063634       -1.8698139537      -11.2718397398
 C        -1.1703441684        0.5367055300      -10.5683004499
 C        -3.5605279633        2.0560497396      -17.4045183709
 C        -4.6528897484       -0.1074076124      -16.6665698009
 C         1.4560381990       -2.3297853217      -21.2925399328
 C         2.3661441394       -2.2884232630      -18.8861583758
 C         6.7310187327        3.1764013003      -20.4989552411
 C         4.9883205509        4.3462592809      -19.0428341210
 C        -0.0886804355        5.1505954997      -24.8218119271
 C         1.7981731942        6.6918857623      -25.4520250250
 H        -1.0765239022        7.7330427560      -22.0466085165
 H        -0.9583827107        6.0071056746      -21.9672724558
 H        -1.4791930793        6.7639008172      -23.5884671637
 H         3.5444971608        6.5672479466      -23.2570645655
 H         4.1292213585        5.0113984827      -23.6920308990
 H         2.9789743478        5.0730223634      -20.9284871157
 H         4.5827398301        5.7675716098      -21.0935267149
 H         6.0998558331        0.7142688461      -19.2810463437
 H         5.6143248339        0.5095790910      -20.9268979544
 H         4.1985017881       -0.6629622079      -18.4193763681
 H         5.2381392591       -1.4911428861      -19.7398254765
 H         0.6638469670       -0.6955593616      -17.7544911678
 H        -0.1989143808       -1.7567854569      -18.7096157387
 H        -1.2558609546        0.7467600350      -19.5708247585
 H        -0.6656113120        1.0791662729      -17.9141152803
 H        -4.0612876205        1.3760148480      -14.4302679456
 H        -2.7075285620        2.6568048164      -14.6971385614
 H        -2.6187391915        2.0827347198      -12.4195732871
 H        -1.2853503017        1.2492622806      -13.2284757014
 H        -3.3847941969       -2.6932822339       -9.4667305481
 H        -4.0547735916       -2.5571015200      -11.0721630596
 H        -6.1780637906       -2.4110222184      -10.3139207526
 H        -5.6596302954       -0.9697622306       -9.3720696709
 H        -6.8237587133       -5.7225322635       -7.5326550150
 H        -8.3765061401       -5.4368732192       -7.0025135032
 H        -6.3627605382       -6.2125600224       -4.9477335053
 H        -7.3597253040       -7.3413414653       -5.9439879216
 H        -7.4492736668       -9.1225674813       -1.8594338686
 H        -6.7486296361       -8.0748218802       -0.6188011438
 H        -5.0171719739       -9.6989731969       -1.7516338742
 H        -4.5541059166       -8.0279269976       -2.1283148056
 H        -5.0759024747       -7.6790527924       -6.0864316070
 H        -3.8434683882       -8.4509417300       -7.2066244736
 H        -3.9101050293       -5.7910325005       -7.3937693540
 H        -2.4334366495       -6.5787659640       -6.7423286533
 H        -2.0327843131       -1.9976889111       -6.6328476375
 H        -1.3274784619       -1.9646582550       -5.0629164756
 H        -3.7581407108       -0.4529496405       -4.7502016637
 H        -2.6828484558        0.2715903515       -5.9960922369
 H        -2.1489451426        0.0771245565       -0.8759773629
 H        -2.4984047250       -1.1008710767       -2.1209537631
 H        -3.9044002866       -0.3574823748        0.3028907329
 H        -2.9430510621       -1.8422391797       -0.0919281455
 H        -7.3871862682        0.7019310590       -1.9261692674
 H        -8.6604196952        0.0167990691       -0.8756699928
 H        -8.7808770419       -0.1939475189       -4.1200140897
 H        -9.2879480952        1.2598830557       -3.2793253795
 H       -13.0725424444        2.0693075286       -3.5696252838
 H       -13.9172486396        1.1794018348       -5.0034899979
 H       -13.0474938861        2.5802564215       -5.3089205785
 H        -9.9822752462       -1.1697609440       -5.2628545174
 H       -11.5690573070       -1.2449935709       -5.8972886863
 H       -11.1723563792       -2.4148603846       -4.6311701342
 H       -13.2511039001       -0.3738306373       -2.5746070479
 H       -12.7784259535       -1.9118108715       -3.1525046617
 H       -13.7019008568       -1.0119463447       -4.2807628322
 H        -7.3654222178       -2.5813789667        1.1968098131
 H        -6.0510073072       -3.3658236302        0.6056737738
 H        -7.6885282033       -3.4935264599       -0.3139596174
 H        -7.2307900986       -0.1337639265        0.8084585789
 H        -5.7989584582        0.5467900619       -0.0565420285
 H        -5.7178466613       -0.6018712508        1.2615697550
 H        -1.0345001612        1.7655713377       -2.1554344686
 H        -2.2840414657        2.7982457097       -1.6358237263
 H        -1.3205397998        3.4083030728       -2.8903086353
 H        -4.2485242982        3.1989068369       -3.8115795115
 H        -4.1897320116        1.7491841933       -4.7843417305
 H        -3.0143767795        2.8926648093       -5.0428629270
 H        -1.4347319686       -5.8163400670       -3.8107163245
 H        -2.6837214412       -5.1029370779       -3.0022526796
 H        -1.2168194623       -4.2069556945       -3.1068155265
 H        -0.8993121362       -5.5582186722       -6.1654466094
 H        -0.3532084983       -3.9909319185       -5.7923059093
 H        -1.7870736761       -4.1150571087       -6.9157051986
 H        -2.5052558745       -9.3636736948       -2.7673430836
 H        -2.1770087241      -10.2726520255       -4.1713987408
 H        -2.9766546136      -11.0782639675       -2.9957200883
 H        -5.1476099756      -10.5802631754       -5.9951340254
 H        -4.6787898953      -11.6538310424       -4.7360599565
 H        -3.5096743788      -11.0875551324       -5.8958802941
 H       -10.1445582189       -6.6527910221       -1.6162123086
 H        -9.8821237269       -5.3323153582       -2.6901785112
 H        -8.8259903261       -5.5948464631       -1.3673057446
 H       -10.3650442221       -8.0561225089       -3.8463225487
 H        -9.5817411826       -8.8647433452       -2.5175660153
 H        -8.8224446091       -9.0380388201       -4.0592821861
 H        -8.1290818135       -0.8243143288       -7.8519680488
 H        -6.4758273535       -0.5855477644       -7.1182897011
 H        -7.8903846395       -1.1811723827       -6.1204185509
 H        -7.8525938364       -4.3012641725       -9.1082553099
 H        -8.0390392354       -2.6514949555       -9.6553716120
 H        -9.1267640023       -3.1972832545       -8.2948248062
 H        -0.8838088925       -2.0747772030      -10.2198214926
 H        -0.4187331603       -1.4042695338      -11.9019174643
 H        -1.7353339091       -2.6676142710      -11.8006927724
 H        -1.8314162423        1.3718149938      -10.3444653732
 H        -0.2869279841        0.9621082657      -11.1556202372
 H        -0.9387550346        0.1957449217       -9.5973013852
 H        -2.6071865496        2.6429827709      -17.3721603480
 H        -4.1876198241        2.6146087565      -16.7038899334
 H        -4.0661831909        2.2632267846      -18.3257891362
 H        -4.4752756417       -1.1609020703      -16.6346593642
 H        -5.1897332018        0.1958860329      -17.5777430855
 H        -5.0413094541        0.3268846495      -15.7431399801
 H         2.2090127701       -3.0037846328      -21.5410559529
 H         1.2914113540       -1.7405828773      -22.2308675224
 H         0.5281746108       -2.8083367669      -21.1453587687
 H         3.2701131260       -2.8581623051      -18.9889599088
 H         1.5555829702       -3.0401802264      -18.7634461253
 H         2.4314710407       -1.7098849583      -17.9663577294
 H         6.9171805319        2.2303072962      -21.0452454884
 H         7.3758984783        3.3636576980      -19.6609565004
 H         7.0851275018        3.9612287612      -21.2703301855
 H         5.5065325753        5.2492146371      -19.3168014828
 H         5.4673170066        3.8971920916      -18.1960684010
 H         3.9615931092        4.3686010453      -18.9231269651
 H        -0.3355159399        5.7568642143      -25.7615084929
 H        -0.8701181909        5.0174948376      -24.1231687196
 H         0.2938066101        4.2089955938      -25.2162341642
 H         2.7738805121        7.1856341890      -25.0846035068
 H         1.0675260760        7.4667731980      -25.7318840891
 H         1.9557592549        6.0240227545      -26.2310742050
 Na       -5.8300566320       -3.9397573172       -3.4552091397
 Na        2.1900192948        1.8622638688      -21.7618719423
