232

 C        -0.9852559013        6.8795895572      -22.7955011549
 C         0.5345652409        6.9346423192      -23.0530536001
 O         1.1889969423        7.8682001095      -22.6900955811
 C         1.0972460121        5.8520541967      -24.1862572095
 C         1.9896549529        4.9236384937      -23.3581524199
 O         1.4502704425        3.8733237009      -22.8649300625
 C         3.2984204314        5.4722304544      -23.0754291251
 C         3.8704121142        5.1777527076      -21.5916879464
 C         4.4233122681        3.6714482394      -21.4901233351
 O         4.2225700065        2.8594152549      -22.3363925920
 C         5.1043389630        3.2594618217      -20.1772516334
 C         4.4534945104        1.8610996176      -19.8390236393
 O         3.2911864063        1.7274671075      -19.6046591709
 C         5.3260050936        0.6331439086      -19.9208793545
 C         4.4897420400       -0.5870827886      -19.5319400640
 C         3.4238931253       -0.7496575332      -20.6601522386
 O         3.5825428649       -0.3312893262      -21.7400946872
 C         2.0793170565       -1.3885986524      -20.1416345624
 C         0.9565180216       -0.3223413763      -19.8550203151
 O         0.7531658322        0.6216287207      -20.5800370069
 C        -0.0423939465       -0.5667182048      -18.6601844195
 C        -1.2478542374        0.3540709995      -18.6483646595
 C        -2.3048771646       -0.3060246575      -17.7159036959
 O        -2.4258804883       -1.5433710300      -17.8322684416
 C        -3.1669607075        0.6556988813      -16.8544911851
 C        -2.4583742260        0.6281949037      -15.4765493891
 O        -1.5769609542       -0.1729001877      -15.2097310971
 C        -2.9892083536        1.6749254010      -14.4197708639
 C        -2.2581227071        1.3668964621      -13.1311052500
 C        -2.6291334286       -0.0881825420      -12.6853540866
 O        -3.5418468708       -0.7765675717      -13.0859060975
 C        -2.0099990670       -0.5906663223      -11.1506943912
 C        -3.3271414271       -0.7859473969      -10.3411776295
 O        -3.8585481339        0.1892667241       -9.8368172933
 C        -4.0219945048       -2.2334752726      -10.1606160538
 C        -5.4185798017       -2.0824667599       -9.5662726185
 C        -5.6659501624       -2.8384908623       -8.2746277765
 O        -4.7084608735       -3.2658620039       -7.6389650501
 C        -7.1384322792       -2.8893433346       -7.7040389642
 C        -7.1266974926       -3.8201709825       -6.3965518958
 O        -6.9404696308       -3.3109875560       -5.3600895758
 C        -7.3812772705       -5.3427793852       -6.6953823700
 C        -7.3074645531       -6.2123465689       -5.3919486179
 C        -8.5353641884       -6.1904013420       -4.4512686019
 O        -9.5211109374       -5.5460462522       -4.8389110449
 C        -8.6304723285       -6.9271291981       -3.0751936656
 C        -7.2043548352       -6.9888560485       -2.4484603398
 O        -6.5067005026       -6.0028683594       -2.3645445764
 C        -6.6812860406       -8.2916824089       -1.7449722400
 C        -5.3118314043       -8.7313652771       -2.2001142975
 C        -5.3433274357       -9.0376803256       -3.7529218610
 O        -6.3689668547       -8.8411465681       -4.3486827880
 C        -4.0015814479       -9.6717896060       -4.5326690156
 C        -3.2834611107       -8.3990986851       -5.1993587550
 O        -2.1679039492       -8.0536815873       -4.9077231348
 C        -3.9840446130       -7.7477086241       -6.4008863975
 C        -3.4732225900       -6.3012207162       -6.7328524639
 C        -3.5432243569       -5.4702155408       -5.3445005161
 O        -4.3701305609       -5.6470420558       -4.5168698173
 C        -2.4620305114       -4.3926135456       -5.1019569854
 C        -3.0371914700       -2.9099467414       -5.0651046836
 O        -4.1765945115       -2.6204856478       -4.7262975560
 C        -2.1497761394       -1.7143337739       -5.4042747506
 C        -2.8358079909       -0.3871667748       -5.0863066637
 C        -1.9254583298        0.5968236060       -4.2358535639
 O        -0.7909851874        0.4013528729       -3.9545145013
 C        -2.7346807531        1.5741473756       -3.3375169857
 C        -3.6003157743        0.7557859622       -2.3892005996
 O        -4.8326078114        0.8461608740       -2.4228780874
 C        -2.8007154180       -0.2226985392       -1.5578556427
 C        -3.5969573856       -1.0950535037       -0.4375852305
 C        -4.8133003728       -1.9033919333       -1.0404344861
 O        -4.6291591447       -2.7942848774       -1.8256576725
 C        -6.2959511409       -1.6214381911       -0.5051428049
 C        -7.2797437841       -1.3320857332       -1.8219766063
 O        -7.2218534320       -2.1332793034       -2.7134301382
 C        -8.1997316122       -0.0631869201       -1.7820909229
 C        -9.1485476357        0.1817841951       -2.9318210319
 C       -10.4827428544       -0.4693159736       -2.8474581962
 O       -10.7924309967       -1.0179237249       -1.7750103684
 C       -11.6449774652       -0.5283376669       -3.9988976019
 C       -11.7242419739        0.9969569257       -4.5913556699
 O       -10.7615320066        1.4698466313       -5.1476716960
 C       -12.9739986945        1.7952076402       -4.6483792998
 C       -11.0275938141       -1.5659939509       -5.0234836661
 C       -12.9337515014       -0.8102247306       -3.3571144709
 C        -6.7790038924       -2.9950397080        0.0429907162
 C        -6.4310094053       -0.5602234964        0.5320336962
 C        -1.7289107329        2.4604330531       -2.5750791425
 C        -3.5598860842        2.4838496070       -4.2399938349
 C        -1.9375113837       -4.7369046718       -3.6654949870
 C        -1.2260447610       -4.3769882784       -6.0992675744
 C        -2.9106758370      -10.2031812953       -3.4753955419
 C        -4.5802837079      -10.8099182881       -5.3150192054
 C        -9.5207583135       -6.1298015372       -2.0884213018
 C        -9.2573365915       -8.2951952360       -3.4316348872
 C        -7.2859647201       -1.4728635820       -7.1621426301
 C        -8.0970592182       -3.2132923932       -8.7372090962
 C        -1.1462981763       -1.9057743601      -11.3603281163
 C        -1.0780024945        0.4928927907      -10.4867152605
 C        -3.5299447484        2.0676914625      -17.4345939400
 C        -4.5317011481       -0.0471201983      -16.5881356453
 C         1.5171043483       -2.2476242663      -21.3172975971
 C         2.2106826210       -2.2680816795      -18.8393514290
 C         6.6503693259        3.1204340690      -20.4452989581
 C         5.0200966080        4.3746547652      -19.0782462671
 C        -0.1573097513        5.0195252358      -24.8198716243
 C         1.8110281199        6.7283126575      -25.2157278243
 H        -1.0949345788        7.7159217957      -22.0375172040
 H        -1.3399300955        5.9718160412      -22.2304835964
 H        -1.5084714388        7.0716055689      -23.7665254083
 H         3.2570216852        6.6243307172      -23.1387138273
 H         3.9947199942        5.2794088658      -23.9084945761
 H         2.9794767162        5.3446042227      -20.9056286123
 H         4.6881675790        5.8289659343      -21.2467136286
 H         6.2359731754        0.6308960869      -19.2285401120
 H         5.7395716521        0.5044426575      -20.9413474455
 H         3.9563047418       -0.3422945409      -18.6685779628
 H         5.2018943219       -1.4882372280      -19.3842218570
 H         0.5559169629       -0.4093567561      -17.7201828948
 H        -0.3355922828       -1.5722914294      -18.4994504606
 H        -1.6598078436        0.1968307250      -19.6720332577
 H        -1.1055345321        1.3726030759      -18.4302056805
 H        -4.0235427459        1.4139604530      -14.3283002501
 H        -2.7456451560        2.6119828514      -14.8838839202
 H        -2.6148820505        2.0721115660      -12.3293603775
 H        -1.1807746587        1.3954668260      -13.2704362520
 H        -3.4891298244       -2.8507008478       -9.5173982079
 H        -4.0613611410       -2.7237721373      -11.1520113816
 H        -6.1709805795       -2.4224486552      -10.2141044655
 H        -5.5687363684       -0.9599070473       -9.3876494485
 H        -6.6219550603       -5.6680449839       -7.3433451195
 H        -8.2202757345       -5.5988245594       -7.2773827797
 H        -6.4024108865       -5.8726320941       -4.8652258247
 H        -7.1369686001       -7.2706424496       -5.7450135526
 H        -7.3445780144       -9.0516576249       -1.9172891470
 H        -6.7525921956       -8.0221147348       -0.7474884655
 H        -4.8400409614       -9.4517989898       -1.5807635259
 H        -4.6428451039       -7.8466090925       -2.1849008861
 H        -5.0583885189       -7.5488301852       -6.1952613858
 H        -3.8027288697       -8.4226836109       -7.2963484530
 H        -4.1688233072       -5.7473427895       -7.3173173234
 H        -2.5164523579       -6.3413518726       -7.1156311412
 H        -2.0851050795       -1.8087080755       -6.5097208824
 H        -1.0989629319       -1.8061233450       -5.0563590455
 H        -3.7690065766       -0.6592152625       -4.5792254047
 H        -3.0037565411       -0.0028678064       -6.0062456877
 H        -2.0394702893        0.2811401689       -0.9753188842
 H        -2.3388494081       -1.0132965620       -2.1534802014
 H        -3.9085306544       -0.3906186191        0.3753457236
 H        -2.8699867139       -1.7971671166       -0.0477944975
 H        -7.5155033576        0.8172869159       -1.8664912188
 H        -8.5930892640       -0.0935694651       -0.7161007971
 H        -8.6259992424       -0.0467539018       -3.9539849260
 H        -9.3691199150        1.2746838018       -3.0501165824
 H       -13.0725632563        2.2873077980       -3.7440213664
 H       -13.8867095136        1.2277492281       -4.9298999158
 H       -12.9285700720        2.5379232491       -5.4688166655
 H        -9.9872868278       -1.3598392793       -5.0991045991
 H       -11.5359204599       -1.3642008664       -6.0233124367
 H       -11.1894457641       -2.6383797249       -4.7014500460
 H       -13.0843109598       -0.0988664331       -2.4989972671
 H       -12.9365299607       -1.7927376646       -2.8121631315
 H       -13.6619301731       -0.9082721720       -4.1287661903
 H        -7.3121071190       -2.9528963979        1.0109493360
 H        -5.8535934074       -3.5292790804        0.3111214471
 H        -7.4076743595       -3.5573696162       -0.6590763379
 H        -7.4029029521       -0.5936339930        1.0131484309
 H        -6.2537381811        0.5048424699        0.2113493072
 H        -5.7335226074       -0.6613726950        1.4110694710
 H        -1.0222384334        1.9482924523       -1.8812845021
 H        -2.3478429415        3.1341526717       -2.0546553751
 H        -1.2031458055        3.1086125513       -3.2899315060
 H        -4.1742359368        3.1619741277       -3.6462776441
 H        -4.2527154422        1.9438195660       -4.9971855792
 H        -2.8223673983        3.0907285072       -4.8263966706
 H        -1.5027716771       -5.7403191797       -3.7089812389
 H        -2.7353335098       -4.7337625994       -2.9390790175
 H        -1.2074106856       -4.0277504217       -3.3008427652
 H        -0.5156596618       -5.1611242837       -6.2051524224
 H        -0.6306127703       -3.5454334143       -5.7784068749
 H        -1.6875213127       -4.0383528274       -6.9946541575
 H        -2.5096409863       -9.4713452282       -2.7838637880
 H        -2.0692670191      -10.5091683795       -4.1070199587
 H        -3.1262387157      -11.1174212765       -2.9851039239
 H        -5.4192715131      -10.4783217975       -5.9602997490
 H        -4.9090107521      -11.6125548423       -4.6624600146
 H        -3.8410668614      -11.2302201445       -6.0030814342
 H       -10.1860283039       -6.8005470569       -1.5250754156
 H       -10.1768118361       -5.4101971730       -2.5658525155
 H        -8.9267881951       -5.5868207533       -1.3831260395
 H       -10.3876816335       -8.3438076934       -3.4111477078
 H        -8.9879062499       -9.2615751106       -2.8357219685
 H        -8.8747243041       -8.5554143674       -4.4174065284
 H        -8.0113041405       -0.9409406494       -7.7726420403
 H        -6.3742512734       -0.8353594941       -7.0389709329
 H        -7.8268965219       -1.4264312836       -6.1475835707
 H        -7.6685013368       -3.9887091340       -9.4409200920
 H        -8.2950136636       -2.3229053497       -9.3665486982
 H        -9.0522174880       -3.5833133074       -8.3463315722
 H        -1.0939177621       -2.3626632707      -10.4129596092
 H        -0.2018796375       -1.6575284527      -11.8199483296
 H        -1.8826804855       -2.4322843579      -12.0677409663
 H        -1.6073849796        1.3032340069       -9.9034847838
 H        -0.3980747280        0.9893343390      -11.1357081976
 H        -0.6530610528       -0.1491823140       -9.6310017219
 H        -2.7387125873        2.7130191670      -17.5664211124
 H        -4.2416470820        2.6699184443      -16.8246246275
 H        -4.0751222839        2.0664177538      -18.5094521020
 H        -4.3091157581       -1.0445731963      -16.4696270056
 H        -5.0895811724        0.1497164922      -17.4675423060
 H        -4.9735966510        0.4268658731      -15.7325771721
 H         2.3170374411       -2.9611944288      -21.6728580935
 H         1.2142883776       -1.6685217837      -22.2162997030
 H         0.6372372854       -2.7623738502      -21.0755964942
 H         3.2099630201       -2.7234745120      -18.7939327106
 H         1.5416980872       -3.0971287974      -18.8631229385
 H         2.0930182217       -1.7034531348      -17.9178569516
 H         6.7695118437        2.1694581529      -20.8516451605
 H         7.2210596214        3.2814521434      -19.5513672820
 H         7.0766673067        3.7256946299      -21.1340304281
 H         5.6878045334        5.1440550104      -19.3535954196
 H         5.2638782308        3.9122986149      -18.1538582733
 H         3.9981494278        4.6294491562      -19.1222734626
 H        -0.5115559765        5.6803133539      -25.6125359724
 H        -0.8419684370        4.6723014674      -24.0546965064
 H         0.2366129298        4.1883337774      -25.3469102123
 H         2.6110687656        7.2930234622      -24.7638914011
 H         1.0089220843        7.4043953232      -25.5194170276
 H         2.1436412435        6.0888576381      -26.1179199256
 Na       -5.7945831135       -4.0348412531       -3.4563205856
 Na        2.2700561811        1.8805702504      -21.7861256525
