232

 C        -1.2060668784        6.9966715287      -22.8129416366
 C         0.3145653224        6.9643650900      -23.0831929860
 O         1.1270404508        7.7392607943      -22.6523095146
 C         0.8824361226        5.9325372936      -24.1041504242
 C         1.9205440903        4.9809822759      -23.2095829197
 O         1.5474583778        3.8543148230      -22.9164096174
 C         3.3429803558        5.4798998197      -22.9964278578
 C         3.9650805390        5.0941362014      -21.6491722759
 C         4.3516037901        3.6360262886      -21.5105460122
 O         4.1056258519        2.8262790897      -22.3963864334
 C         5.0911671475        3.2452804982      -20.1287856005
 C         4.5869582029        1.9210753236      -19.7972239832
 O         3.3716019347        1.7163417707      -19.5580672657
 C         5.4944728888        0.6110672466      -19.8682462698
 C         4.5516680504       -0.6000298424      -19.6120897936
 C         3.3579369465       -0.6963148465      -20.6010098554
 O         3.4662156656       -0.3448257925      -21.8105300789
 C         2.0250924643       -1.4328245480      -20.1266380551
 C         0.8975527335       -0.2278780099      -19.8245007791
 O         0.7536077570        0.6810824867      -20.6084824979
 C        -0.0636521905       -0.3867858345      -18.6931979323
 C        -1.3849685022        0.3858629841      -18.8732690285
 C        -2.4217196785       -0.2823487942      -17.8512704068
 O        -2.5162375166       -1.4923171334      -17.7290650824
 C        -3.1909433202        0.6023596820      -16.8349015598
 C        -2.4086814945        0.6195861615      -15.4508815851
 O        -1.5776014303       -0.1810833956      -15.1802309412
 C        -2.8956963280        1.6426330218      -14.3331393664
 C        -2.2674745848        1.3202199578      -12.9536150078
 C        -2.6388145142       -0.0274979258      -12.4717170715
 O        -3.3815964573       -0.7318453857      -13.0892510959
 C        -2.0366205989       -0.6612303899      -11.1776375116
 C        -3.3251289903       -0.8667588718      -10.4060672634
 O        -3.8878305693        0.1142307899       -9.9207589731
 C        -3.9101488131       -2.2358721180      -10.2632572682
 C        -5.4209590337       -2.1784429687       -9.6772123892
 C        -5.6513404979       -2.9122540071       -8.2914825845
 O        -4.7197144758       -3.2326673227       -7.5998467405
 C        -7.1549278911       -2.9062444506       -7.7670981000
 C        -7.1052000898       -3.8717344887       -6.4495864900
 O        -6.9565118584       -3.3897195223       -5.3357661407
 C        -7.3726453804       -5.3423959081       -6.5878982228
 C        -7.3342292347       -6.1757064327       -5.2665507231
 C        -8.6280846540       -5.9915127964       -4.4095044244
 O        -9.6681046285       -5.5386270344       -4.7879013268
 C        -8.5825640769       -6.8419035946       -3.0701591834
 C        -7.1855550682       -6.9884928821       -2.4293440711
 O        -6.3939668863       -6.0524347716       -2.5676498646
 C        -6.5635723109       -8.2710470482       -1.7555016595
 C        -5.2100848301       -8.6009687833       -2.2677872190
 C        -5.0995749978       -8.9468885716       -3.7744441975
 O        -6.1501403032       -8.9685562975       -4.4479915729
 C        -3.9767332575       -9.6046718971       -4.5551859878
 C        -3.2471624072       -8.4319213859       -5.4014862926
 O        -2.1647536899       -7.9987813464       -5.0437334034
 C        -4.0821616718       -7.7086360794       -6.4963306793
 C        -3.5641708758       -6.2648496900       -6.6416401286
 C        -3.5282296650       -5.3622156040       -5.4073334746
 O        -4.3158021157       -5.6915245534       -4.5135292024
 C        -2.4335727930       -4.1986457461       -5.1235062691
 C        -2.9981469984       -2.7947636147       -5.0848792408
 O        -4.1014117638       -2.5723866941       -4.6125330648
 C        -2.0447676820       -1.5806240805       -5.3897733033
 C        -2.8114492192       -0.3222059225       -5.0967238114
 C        -2.0165477373        0.5670919929       -4.1577457930
 O        -0.8045317388        0.2795801458       -3.9643524996
 C        -2.7653776208        1.7064708879       -3.3839597253
 C        -3.5698590161        0.7519837156       -2.3550330909
 O        -4.7658692859        0.7416928297       -2.3629290774
 C        -2.7359234281       -0.2287329087       -1.5568288423
 C        -3.7147555941       -1.0249818698       -0.4846019673
 C        -4.8372879497       -1.8337781372       -1.0325183293
 O        -4.6192627007       -2.8566420488       -1.7190411527
 C        -6.2866620393       -1.6884811504       -0.4936499156
 C        -7.1907801628       -1.2794002049       -1.7553927199
 O        -7.2383104236       -2.0301264213       -2.6832553892
 C        -8.1168008632       -0.0922314117       -1.6999733018
 C        -9.0502754194        0.1801532190       -2.9277306929
 C       -10.4695002046       -0.5566573130       -2.7639233434
 O       -10.7568337473       -1.1123254167       -1.7480860594
 C       -11.6047178750       -0.4810321559       -3.9620651315
 C       -11.6805240537        1.0124261558       -4.6818385711
 O       -10.6320799421        1.4942475436       -5.0547861838
 C       -13.0250950164        1.7726401839       -4.5560982749
 C       -11.2333347493       -1.5608084909       -5.0341120382
 C       -12.9593639027       -0.8868291705       -3.2798870864
 C        -6.6675537960       -3.1490218767       -0.1114462579
 C        -6.5229009325       -0.7063283509        0.6992128822
 C        -1.6754224245        2.5571506979       -2.6189658237
 C        -3.7042491395        2.5975327583       -4.3130367204
 C        -1.8696203778       -4.4918349216       -3.6885564131
 C        -1.2074037513       -4.3228196323       -6.1735753499
 C        -3.0498587159      -10.2992294255       -3.4995430284
 C        -4.6504965562      -10.6570579334       -5.4142180424
 C        -9.5972666157       -6.1957956375       -2.0990170780
 C        -9.2030047070       -8.2661457755       -3.4413825191
 C        -7.3074161578       -1.4045167653       -7.1264466379
 C        -8.2288417650       -3.2921016704       -8.8428384555
 C        -1.2012605740       -1.9442841348      -11.5501013374
 C        -1.0982579705        0.3674623901      -10.4785175968
 C        -3.3396357651        1.9098764797      -17.4188897321
 C        -4.5935586897       -0.1587909548      -16.5364848306
 C         1.5652581507       -2.2148282403      -21.3402478437
 C         2.1825438022       -2.3639947143      -18.9107186124
 C         6.6575642769        3.1321396998      -20.4691438160
 C         4.9422865821        4.3262694012      -18.9530350141
 C        -0.1129053220        4.9538119362      -24.8301885182
 C         1.7425788327        6.6772519644      -25.0875519497
 H        -1.3690248164        7.4897955220      -21.8680973225
 H        -1.4128413532        5.9298828520      -22.5623497435
 H        -1.7923388558        7.3843830314      -23.6630181374
 H         3.4471139591        6.5414984791      -22.9444762186
 H         3.9640488267        5.2915266513      -23.8989192639
 H         3.2670770755        5.5124157222      -20.8275922091
 H         4.9456014714        5.6168472973      -21.5501282071
 H         6.4663680396        0.4577032091      -19.1687868674
 H         5.8950679826        0.5192316684      -20.8587969000
 H         4.0812758129       -0.4578871845      -18.6008605616
 H         5.0201267879       -1.5066266022      -19.6796391679
 H         0.4256377491       -0.1204627730      -17.7688008566
 H        -0.2403102934       -1.4498519311      -18.4992081516
 H        -1.6219004432        0.2756771341      -19.8867255957
 H        -1.3653485700        1.4655916524      -18.5566488501
 H        -3.9466911697        1.6099750645      -14.3166814556
 H        -2.4367996204        2.5548673925      -14.7265080857
 H        -2.6302001101        2.1256887905      -12.3151600913
 H        -1.1115000045        1.3343119244      -13.0485801347
 H        -3.4335913888       -2.8350596459       -9.4983694947
 H        -3.7908836051       -2.7054746701      -11.2327544430
 H        -6.1954954597       -2.4873588022      -10.3148794045
 H        -5.5409843280       -1.0523485292       -9.4120854779
 H        -6.7043261883       -5.7432885076       -7.3413336221
 H        -8.3209090639       -5.5628968092       -7.0778134475
 H        -6.4225773949       -5.9130088830       -4.6888389103
 H        -7.2886294425       -7.1946580291       -5.5471373217
 H        -7.2405843127       -9.1171358176       -1.8637142459
 H        -6.5045717595       -8.0220159056       -0.6984158629
 H        -4.8538401692       -9.4696000236       -1.7210287538
 H        -4.4859936383       -7.8468264171       -1.9726366636
 H        -5.1655030564       -7.7054513477       -6.2783332030
 H        -3.8738186164       -8.0265698027       -7.5424264981
 H        -4.2209072957       -5.7195926316       -7.2948198220
 H        -2.5006380886       -6.4096372573       -7.0691485244
 H        -1.5364756125       -1.6357916598       -6.3285512819
 H        -1.1496443873       -1.6749893425       -4.6466603549
 H        -3.6706034007       -0.7208752317       -4.6032761055
 H        -3.0602056570        0.2779195655       -6.0546034399
 H        -2.0044745096        0.2783105141       -0.9332425281
 H        -2.2796607250       -1.0525557521       -2.1136808225
 H        -4.0559030207       -0.3391093777        0.2678785330
 H        -3.0996540965       -1.8066296901        0.0119904477
 H        -7.6648527112        0.9165356440       -1.3756353158
 H        -8.6794791962       -0.4650419299       -0.8708979422
 H        -8.5991088018       -0.0728018994       -3.8473776264
 H        -9.2303925740        1.2425422074       -3.0473293164
 H       -13.0825376436        2.2161561913       -3.5974415568
 H       -13.8866386268        1.1840776886       -4.7552674526
 H       -13.0872340614        2.5226846069       -5.3429833403
 H       -10.0819105023       -1.5463228245       -5.2851935129
 H       -11.9195259890       -1.5120732065       -5.9129573560
 H       -11.3899566630       -2.5004748594       -4.5043419924
 H       -13.2488184323       -0.1470706376       -2.5275915863
 H       -12.8427913844       -1.7549513485       -2.6137022920
 H       -13.6551877832       -1.1573884379       -4.0896676589
 H        -7.4895505142       -3.1606356152        0.5790126925
 H        -5.8211572119       -3.7121411435        0.3580206772
 H        -6.9958184661       -3.6613791832       -1.0041256351
 H        -7.6094379050       -0.7313231998        1.0848517510
 H        -6.3783927362        0.3259004430        0.4828503928
 H        -5.9092671453       -0.8770831077        1.5902810687
 H        -1.1317987008        2.0204270825       -1.7674798527
 H        -2.1244327536        3.5325857775       -2.2095875080
 H        -0.9272719333        2.8061546927       -3.3570531128
 H        -4.2222905882        3.1883062722       -3.5064084793
 H        -4.5100982660        2.1703209992       -4.9683284104
 H        -3.0862155544        3.3990472849       -4.8676013940
 H        -1.5454847512       -5.5405249255       -3.4425954682
 H        -2.7317811577       -4.1735871957       -2.9815451984
 H        -1.1014748385       -3.8018444620       -3.4239098578
 H        -0.7140287177       -5.2633949050       -6.0567605936
 H        -0.4505818887       -3.6449858265       -5.8103943564
 H        -1.4510091950       -4.1147512253       -7.1769915980
 H        -2.6241971871       -9.6793844172       -2.6933808396
 H        -2.2635758721      -10.9052794884       -3.9089887367
 H        -3.6641955625      -11.0631126715       -2.9829755586
 H        -5.3617882213      -10.2327497193       -6.1597088941
 H        -5.1035037639      -11.5309685267       -4.8880239007
 H        -3.8300220572      -11.0383362475       -6.0495444851
 H        -9.9952911823       -6.9418480455       -1.3554673079
 H       -10.5277650319       -5.8567765681       -2.6235102573
 H        -9.1627656027       -5.3370479621       -1.5859430061
 H       -10.2628204720       -8.3085726168       -3.2812764569
 H        -8.8446626188       -9.1378746690       -2.9539144190
 H        -8.9552668704       -8.4826779629       -4.5331800533
 H        -7.7884589788       -0.7412529419       -7.8491939597
 H        -6.4090652049       -1.0043722580       -6.7026139801
 H        -8.0468980525       -1.4045211318       -6.3908611535
 H        -7.9075788461       -3.9275414026       -9.6135676237
 H        -8.6646324905       -2.3535698419       -9.2595643051
 H        -9.0501107689       -3.8194388493       -8.3668946592
 H        -1.3004278420       -2.4243669266      -10.5808130703
 H        -0.1856289652       -1.8284577725      -11.8222158499
 H        -1.8906266473       -2.3951429619      -12.2171827759
 H        -1.6250996638        1.1845403405       -9.9084708583
 H        -0.5144939159        0.9128351760      -11.2023278291
 H        -0.5343080673       -0.1981937309       -9.6980924840
 H        -2.4107462414        2.5412855868      -17.5725364965
 H        -4.0355569639        2.6386818658      -16.9731679446
 H        -3.7127916115        1.7712692973      -18.4372214105
 H        -4.2521593367       -1.1134793584      -16.1304713517
 H        -5.1596258489       -0.2315225704      -17.4105159722
 H        -5.1349547983        0.4527492697      -15.8634516460
 H         2.2718654251       -2.9942310047      -21.7363360549
 H         1.3176598739       -1.6023945818      -22.1623988051
 H         0.5513244898       -2.6850656618      -21.0891555828
 H         3.0425307246       -3.0118332274      -19.1277645344
 H         1.3544029330       -3.0187918768      -18.7284475832
 H         2.4711290861       -1.7902398003      -18.0350352830
 H         6.7910041605        2.4609526330      -21.2514826035
 H         7.1777551991        2.8602895237      -19.5886723728
 H         7.1288748754        4.0099473761      -20.7794946650
 H         5.5344563197        5.1616042158      -19.2672512916
 H         5.2003132999        3.8757571627      -18.0178215950
 H         3.8466066457        4.5392670495      -19.0212945339
 H        -0.8201249825        5.4837148007      -25.3297858118
 H        -0.3724870535        4.1536969727      -24.0921327851
 H         0.4774209917        4.4841807060      -25.6121333971
 H         2.3164440878        7.3259684785      -24.4962484476
 H         1.0922054049        7.2068454011      -25.7919147993
 H         2.3572234001        5.9083538076      -25.6344638297
 Na       -5.7927727787       -4.0515260977       -3.3917896947
 Na        2.2990926434        1.8631666217      -21.8683174626
