232

 C       -22.4073116800       -6.6738054961       -2.7460550839
 C       -21.1763886877       -5.8800922263       -3.1536658736
 O       -20.2441936987       -5.6349039360       -2.3798403719
 C       -21.0971368176       -5.3050325777       -4.5711752288
 C       -20.2505368353       -3.9477604690       -4.5027274892
 O       -19.9377336583       -3.2870050407       -3.4984720246
 C       -19.7722609700       -3.4587313875       -5.9601080121
 C       -18.7055336534       -2.3998813596       -5.8746110404
 C       -17.6477357843       -2.9890489454       -4.9392453510
 O       -17.5866562146       -4.2193315041       -4.9020465394
 C       -16.6536286596       -2.0855012111       -4.2185971645
 C       -16.3546808758       -2.8039030895       -2.8261129790
 O       -17.1131046484       -2.5567007175       -1.9286955258
 C       -15.0537721092       -3.6209040980       -2.6771912798
 C       -14.7695545983       -3.9659271172       -1.1819903762
 C       -15.3738062461       -5.3565756022       -0.9580857719
 O       -16.4296548365       -5.6810026951       -1.5257859879
 C       -14.5818713856       -6.3811384743       -0.0989857590
 C       -13.3094272899       -6.9466173449       -0.9135542305
 O       -12.5812636878       -6.1540023132       -1.5299753374
 C       -12.9175204741       -8.4225116328       -0.9212147597
 C       -11.4836551918       -8.4046573126       -1.4541066548
 C       -11.0489223573       -9.8922400304       -1.8225470551
 O       -11.8920086200      -10.7677176340       -1.7482433601
 C        -9.8199715339      -10.1295563313       -2.6810672454
 C        -8.6134055196       -9.1829487569       -2.5125536650
 O        -8.4880358459       -8.6335177370       -1.4268747366
 C        -7.6008077618       -9.0020922018       -3.6434652655
 C        -6.7555406342       -7.7296535693       -3.5076548254
 C        -7.0500601096       -6.6765995366       -4.5570351399
 O        -7.8737840055       -6.8334975710       -5.4399909117
 C        -6.1653452289       -5.3882383827       -4.4878094621
 C        -5.0632256735       -5.6050513599       -5.6094873873
 O        -3.8923007144       -5.9451519667       -5.3553171040
 C        -5.4414427499       -5.4742480411       -7.1288166636
 C        -4.1850016692       -5.4915975654       -8.1050755574
 C        -4.6251504912       -4.8555074246       -9.4752624040
 O        -5.5388916255       -5.2710784717      -10.1219142397
 C        -3.9015006164       -3.5670482919      -10.1107326749
 C        -2.4412770761       -3.7969324815      -10.5906100291
 O        -1.5046323246       -3.3393908520       -9.9379623767
 C        -2.1233605275       -4.6068849989      -11.9616721152
 C        -0.7516826957       -5.1821418493      -12.0480377922
 C         0.1237236596       -4.1724541212      -12.7964188461
 O        -0.2473754989       -3.0951527516      -13.2426937610
 C         1.6465636550       -4.6041022893      -13.0503705881
 C         2.6786973145       -3.4259316463      -13.3174466518
 O         3.7677355262       -3.6777340513      -13.7583873368
 C         2.4497257159       -1.9689168493      -12.7997211722
 C         3.7477299593       -1.3265825319      -12.2875754683
 C         3.6664744963        0.0758222178      -11.7408861252
 O         2.6005955801        0.5743896770      -11.6532146288
 C         4.9143119269        0.9608687073      -11.6979027994
 C         5.0010078876        1.7334876234      -12.9558706278
 O         5.5992591664        1.2486040702      -13.8863380766
 C         3.9864371397        2.9637339731      -13.1150136872
 C         4.2030744054        4.4429079474      -12.5068405103
 C         5.3984327956        5.0794616984      -13.1976843351
 O         5.7073941144        4.5152327123      -14.2555705859
 C         6.1248866902        6.3074717780      -12.7226981700
 C         6.7049375015        6.9715244330      -14.2299012204
 O         6.0546998842        7.8371449962      -14.7120036155
 C         8.1042893082        6.5081009336      -14.6349116354
 C         8.4216212520        6.7201602512      -16.1268361321
 C         7.4342190356        5.9919031607      -17.1580924678
 O         6.8991476292        4.9426227722      -16.9202654393
 C         6.9449867053        6.7540052577      -18.4499399670
 C         8.1224718890        7.2178312309      -19.2483663129
 O         8.8061906396        8.1270950108      -18.8040466785
 C         8.3040078330        6.8531135544      -20.7352156609
 C         9.7232520329        6.1983572797      -20.9270370586
 C         9.8105267863        4.8953377545      -20.1458509028
 O        10.1245594116        4.9077153339      -18.9807301530
 C         9.7028309943        3.4888381358      -20.9654368217
 C         8.8073296618        2.4826295200      -20.2289400201
 O         7.6008689605        2.4312232673      -20.4698086780
 C         9.6809179940        1.5624263606      -19.2533363718
 C         8.7827440548        0.4659736156      -18.5784837551
 C         7.4887678871        1.1718063843      -17.9040844176
 O         7.6892968004        1.8256317938      -16.9128657869
 C         5.9945851113        0.6380895593      -18.3194907917
 C         5.0629731339        1.8219114132      -18.5298693709
 O         4.8241479824        2.6489570209      -17.6403420504
 C         4.3100308837        1.9024396978      -19.8581005528
 C         5.8862382677       -0.2980552223      -19.4608907113
 C         5.5093491461       -0.0166898481      -16.9752197788
 C         9.1484127970        3.7817265243      -22.4417686866
 C        11.1324546600        2.9094872240      -21.2290111147
 C         5.8039943224        5.9098557261      -19.2057951554
 C         6.1329426429        8.0503683671      -17.9864133600
 C         5.2087248446        7.2890475304      -12.0893567215
 C         7.3248085996        5.7712606233      -11.8565676054
 C         5.0147495960        1.7197084284      -10.3803724962
 C         6.1553665688       -0.0206731044      -11.6051163012
 C         2.1690492572       -5.3451656220      -11.7478166096
 C         1.7458392649       -5.6357178596      -14.1724213128
 C        -4.7001001786       -3.0492603091      -11.3509962809
 C        -3.9521104673       -2.3239972549       -9.0117276543
 C        -6.9641601460       -4.0798057479       -5.0194001597
 C        -5.5900001129       -5.1405969119       -3.0808055439
 C        -9.1297482543      -11.4427034087       -2.0238566808
 C       -10.2956418906      -10.3913191697       -4.1501258563
 C       -13.8004757475       -5.8090362957        1.1119328343
 C       -15.6414772562       -7.3628374147        0.3346711998
 C       -15.4108952011       -1.9287524262       -5.2252288051
 C       -17.2774780411       -0.6833002944       -3.9285036665
 C       -20.4363708432       -6.4882122296       -5.4193870446
 C       -22.5165469599       -4.8906162730       -5.1230070629
 H       -23.0943995636       -6.0539055370       -2.2168081368
 H       -22.0512696689       -7.5052889675       -2.1529105572
 H       -22.8252972803       -7.1087655353       -3.6894387530
 H       -20.7256194007       -3.1217993910       -6.4567684762
 H       -19.4246880343       -4.3367550602       -6.5249856947
 H       -19.1477482708       -1.4083497973       -5.5558549538
 H       -18.2164683497       -2.0957257744       -6.8271412851
 H       -14.2995230700       -2.8940979419       -3.0283778833
 H       -15.0307448366       -4.4925208448       -3.2734813220
 H       -15.2496594460       -3.3272303999       -0.4959191238
 H       -13.6426706170       -4.2253507600       -0.9612146248
 H       -13.5675824493       -8.9811837546       -1.6072619918
 H       -12.9930377631       -8.8166564530        0.0570926329
 H       -10.7909261529       -7.8819449910       -0.7619101514
 H       -11.5196584227       -7.9484077616       -2.3905857000
 H        -8.0820381321       -8.9792032323       -4.6487624206
 H        -7.0012657902       -9.9301320233       -3.6099785902
 H        -5.6854874636       -8.0579583166       -3.6926259661
 H        -6.8171191827       -7.3464699175       -2.4805714267
 H        -6.0464767970       -4.6011268485       -7.3722939665
 H        -6.0275127494       -6.3466206155       -7.2934439242
 H        -3.8950502529       -6.4808835571       -8.3217819127
 H        -3.3809835956       -4.9668843611       -7.8066763211
 H        -2.3887597078       -3.9926300214      -12.7216407718
 H        -2.8582373506       -5.3964764393      -11.9747960333
 H        -0.7022653559       -5.9591757773      -12.7679004258
 H        -0.4280665154       -5.6997691460      -11.1479100779
 H         1.6474262246       -1.9041385071      -12.1181637909
 H         2.0646757653       -1.4537715471      -13.6553062340
 H         4.4671992577       -1.2162518436      -13.1023224860
 H         4.1897275012       -1.9398506266      -11.4207986131
 H         3.0570608858        2.6190816937      -12.6788475415
 H         3.9986312635        3.0364481287      -14.1436122989
 H         4.6184201026        4.3736910944      -11.4534822566
 H         3.2170682557        5.0492084578      -12.5792276751
 H         8.2429503226        5.4741312157      -14.3284963522
 H         8.8163306398        6.9548668145      -13.9711490289
 H         9.2737621036        6.3056327739      -16.4335334814
 H         8.4485730524        7.8068919663      -16.3247777209
 H         8.3157697426        7.8006015410      -21.2666534782
 H         7.5691649069        6.2616934882      -21.2375788329
 H        10.5025296793        6.8467079853      -20.5056810085
 H         9.9438683322        6.0913052804      -22.0433114950
 H        10.2498623678        2.1891080299      -18.6095130510
 H        10.5078461516        0.9955706968      -19.6814069441
 H         9.2331827601       -0.0903302364      -17.7088659548
 H         8.4925113220       -0.1849138639      -19.3970853623
 H         4.0091981422        0.9977586961      -20.2435458969
 H         5.1867875616        2.2679709544      -20.3894782768
 H         3.6419878821        2.8093692480      -19.8112353933
 H         4.8108742930       -0.6651876852      -19.6747600293
 H         6.5593208371       -1.1958063063      -19.3648762200
 H         6.1481129358        0.1120415528      -20.4468830365
 H         6.3587711913       -0.1886455791      -16.2075262683
 H         5.0286416458       -1.0462168319      -17.0204163781
 H         4.8277446404        0.6020844513      -16.4202388438
 H         8.6560483344        2.9650266397      -22.8670966763
 H         9.9346449139        4.0940549558      -23.0802463493
 H         8.4351652034        4.5346920519      -22.5656755930
 H        11.0581747980        2.0109815803      -21.7736807865
 H        11.6665149538        2.8202368838      -20.3246060603
 H        11.5499744204        3.6766475352      -21.8255715295
 H         4.8949431422        5.7544808961      -18.5414457873
 H         6.1273513025        4.8528333497      -19.4503709112
 H         5.5370786057        6.3823455799      -20.1581942014
 H         6.6376878554        8.7571839005      -17.3061854007
 H         5.2653113057        7.7601700874      -17.4601718420
 H         5.8417772857        8.5916559384      -18.9221741585
 H         5.8193076069        8.1240478530      -11.7920938409
 H         4.5740162436        6.9455262619      -11.2199506300
 H         4.4955081746        7.6960105920      -12.8623291376
 H         6.9874141378        5.4762088721      -10.8404986587
 H         8.0436190098        6.6065207288      -11.7525358015
 H         7.8794611024        4.9493077402      -12.2063493522
 H         5.5538262149        2.6904597214      -10.5945064825
 H         5.4840486955        1.1071793655       -9.6523471827
 H         3.9656923726        2.0663357523      -10.0104409680
 H         6.0121952243       -0.8067663713      -10.9705299022
 H         7.0523838836        0.5932382730      -11.5703965895
 H         6.3096162578       -0.4620472841      -12.5833661962
 H         1.6653326827       -4.8084131453      -10.9365388779
 H         3.2113524358       -5.3085584918      -11.5757426470
 H         1.8050382256       -6.3785940707      -11.5877654461
 H         2.2967364238       -6.5259941278      -13.8501529326
 H         2.3446608511       -5.1618271039      -14.8975087972
 H         0.8560805647       -5.9879635191      -14.5792777043
 H        -5.7149701988       -2.6787549647      -11.0327911271
 H        -4.9332000895       -3.7748050766      -12.1130181919
 H        -3.9715958924       -2.2967516344      -11.7613856005
 H        -4.2597769710       -1.4161320574       -9.4962656322
 H        -2.8739432196       -2.3116429008       -8.7105651629
 H        -4.6476081158       -2.5355401730       -8.1805280831
 H        -7.4945020540       -4.4020666025       -5.8388049124
 H        -6.1718251139       -3.4018166391       -5.3925611928
 H        -7.6202908877       -3.4836835542       -4.3988285626
 H        -6.4780406904       -5.0747127648       -2.4653455538
 H        -5.1154056372       -4.2101252665       -2.8994813668
 H        -4.9473190481       -5.9663110497       -2.6748675867
 H        -9.7798612624      -12.2775312306       -2.1272670181
 H        -9.0727395717      -11.3307150706       -0.9440100697
 H        -8.1264928330      -11.6548466191       -2.4955651873
 H       -11.2893337431      -10.9052624576       -4.2782146475
 H        -9.4397154953      -10.8810870265       -4.5985815904
 H       -10.5677384917       -9.4543461488       -4.5392511931
 H       -14.4448576942       -5.0941826539        1.5714589977
 H       -13.0006215182       -5.2747858887        0.6801538266
 H       -13.4725762607       -6.6156387571        1.7803894252
 H       -16.0608057227       -7.8191128183       -0.4953666163
 H       -16.4027008547       -6.8934938374        0.9153553222
 H       -15.2354883707       -8.2021887482        0.8543142196
 H       -15.0225099517       -2.8728982190       -5.5384283773
 H       -14.5601608830       -1.3101094075       -4.7344397680
 H       -15.7171003529       -1.4455194517       -6.1660492390
 H       -18.3451329491       -0.7834981784       -3.5422757972
 H       -17.3535875055       -0.1180772275       -4.7702930933
 H       -16.8797872492       -0.1828141191       -3.0665251707
 H       -19.3756000631       -6.7273255263       -5.0571956760
 H       -20.3967706140       -6.2047931280       -6.4816618132
 H       -21.1298550738       -7.3471555420       -5.1775079252
 H       -22.4778326579       -4.6287011060       -6.1966022490
 H       -22.8405856454       -4.0470396464       -4.5272769270
 H       -23.1020825147       -5.7850950710       -4.9430946298
 Na      -18.1006293484       -4.6970952492       -2.5338706817
 Na        6.1366172078        2.8879792601      -15.6917081052
