232

 C        -1.4217366063        6.9422897886      -23.0842775728
 C         0.0281306133        6.6492826901      -22.9039590704
 O         0.7469073420        7.3120156664      -22.1463313117
 C         0.7430234035        5.7229742280      -23.9965787236
 C         1.8063704379        5.0210599362      -23.0732122217
 O         1.4973861585        3.9534797131      -22.5678463254
 C         3.1847698261        5.5758527248      -22.8575783926
 C         3.7876722486        5.1653097379      -21.4595257634
 C         4.4240389195        3.7665087465      -21.4336384590
 O         4.4196739714        3.1188623407      -22.4795577531
 C         5.2052957517        3.1913108419      -20.1545463991
 C         4.6320252704        1.8094730187      -19.8803674539
 O         3.4253048108        1.5875934011      -19.5805664490
 C         5.4338781881        0.5040243024      -20.0660260081
 C         4.5869039227       -0.6749038467      -19.7550617904
 C         3.2274488990       -0.5439013939      -20.5839692024
 O         3.2946314145       -0.1268177074      -21.7748951828
 C         1.8683456089       -1.2719398987      -20.1735317379
 C         0.7424273900       -0.2009913059      -19.8464470741
 O         0.6402469635        0.7980722736      -20.5596964863
 C        -0.1063252791       -0.5186274299      -18.6456416307
 C        -1.4458821205        0.1628247794      -18.7105125814
 C        -2.4470083907       -0.4282295057      -17.7281631812
 O        -2.7089975747       -1.5895257606      -17.7450060649
 C        -3.1592422704        0.5645224531      -16.6540436088
 C        -2.2139221519        0.6548046156      -15.4482860240
 O        -1.1292845931        0.1076287032      -15.4734823389
 C        -2.6397365653        1.6100210824      -14.3016360077
 C        -2.1045167802        1.0991038323      -12.9429283496
 C        -2.6556457596       -0.2545858020      -12.5970620909
 O        -3.4160118572       -0.7624168320      -13.4043168602
 C        -2.1382015233       -0.8851398856      -11.2573961868
 C        -3.4453082982       -1.1597112484      -10.2395291991
 O        -3.9622639724       -0.1923102965       -9.7132912693
 C        -4.0179168994       -2.4784948621      -10.2371907141
 C        -5.5039227973       -2.5171402554       -9.7673336610
 C        -5.7283519124       -3.0355768857       -8.3759331194
 O        -4.8765459344       -3.5844533953       -7.7324277908
 C        -7.1620855625       -2.8814792721       -7.8361527883
 C        -7.2363688198       -3.8119192452       -6.5626115713
 O        -6.7228488537       -3.3677728583       -5.5029961718
 C        -7.9397860845       -5.2384055880       -6.6966134847
 C        -7.6870887777       -6.3270729264       -5.5549554651
 C        -8.6692029526       -6.0687855832       -4.4425373021
 O        -9.4081967883       -5.1331143146       -4.4162329318
 C        -8.5252220506       -6.9241880050       -3.1377423100
 C        -6.9859572100       -6.8324524051       -2.6504244896
 O        -6.4484782783       -5.7245877748       -2.5181893162
 C        -6.2952304926       -8.1125294710       -1.9772205456
 C        -5.0582165023       -8.6066408670       -2.7038430463
 C        -5.1585031091       -9.0023881568       -4.1251176408
 O        -6.1740605645       -8.7104711549       -4.7974275084
 C        -3.8887375789       -9.5290489852       -4.8504485483
 C        -3.1826897822       -8.2254489079       -5.4381113320
 O        -2.0230608011       -7.9212405109       -5.2669935213
 C        -4.0240862372       -7.3228523060       -6.3615164581
 C        -3.3001601436       -5.9477514090       -6.5082659757
 C        -3.3859108452       -5.0297171053       -5.2258180652
 O        -4.2807445204       -5.2191470651       -4.3607841288
 C        -2.1485734401       -3.9752249350       -5.0959377956
 C        -2.9013041513       -2.5460098755       -5.1062156750
 O        -4.0310261247       -2.3068377407       -4.7679666838
 C        -2.2344733365       -1.3760979198       -5.9778814025
 C        -2.8341107414       -0.0333063781       -5.4702119772
 C        -2.0133355572        0.5748678471       -4.2557301879
 O        -0.8123772238        0.3496644169       -4.0643219680
 C        -2.9046015820        1.4896006308       -3.2689298922
 C        -3.7795727980        0.8005942745       -2.2325746097
 O        -4.9739268977        0.9092733128       -2.1328686750
 C        -3.0335321698       -0.0086120400       -1.1806608675
 C        -4.0306678981       -0.6257010645       -0.1726386840
 C        -4.8303530068       -1.7269060262       -0.8391490462
 O        -4.3629347107       -2.5894124785       -1.6322787427
 C        -6.3371783460       -1.9549669574       -0.4771165264
 C        -7.1245888082       -1.4977609233       -1.7089105989
 O        -6.9415086137       -1.9940996213       -2.8034750374
 C        -8.0056742498       -0.2792871665       -1.6354177013
 C        -8.9832329213       -0.1242322399       -2.7521283046
 C       -10.3728758630       -0.7229204548       -2.4771651494
 O       -10.5631068250       -1.4865587983       -1.6006870071
 C       -11.4636818937       -0.4814404499       -3.5825359526
 C       -11.4080095629        0.9776864790       -4.1227339349
 O       -10.3706280516        1.3885295480       -4.6190363483
 C       -12.8087567184        1.8004324634       -4.3540865276
 C       -11.1832136869       -1.5707792469       -4.7118773886
 C       -12.9005489397       -0.9615952749       -2.9728562881
 C        -6.6580114895       -3.5074769397       -0.3988728987
 C        -6.8198495802       -1.2191054852        0.8344735723
 C        -1.9199322035        2.4569817529       -2.5214215070
 C        -3.7360967000        2.3682879923       -4.2190074178
 C        -1.4941059514       -4.3921792214       -3.6581721459
 C        -1.1910042173       -4.0366864517       -6.2129910516
 C        -2.9719633890      -10.2724148434       -3.8857027497
 C        -4.5077885593      -10.4039688091       -5.9528199461
 C        -9.2888670678       -6.2417306134       -1.9380783589
 C        -8.9609248667       -8.3946314087       -3.4694146766
 C        -7.4131157648       -1.3964021267       -7.4516607427
 C        -8.1961968762       -3.3191136688       -8.9236252878
 C        -1.5814261651       -2.2822480098      -11.6362747601
 C        -1.2121115315        0.0059791898      -10.4337680208
 C        -3.3647420848        1.9125877303      -17.3409649291
 C        -4.4904945812       -0.1094143424      -16.2512082627
 C         1.3127257098       -2.0028902233      -21.4898739799
 C         2.1369748904       -2.4012536012      -19.0967455628
 C         6.6993704010        3.1398832824      -20.4030613158
 C         4.8617897256        4.1371475145      -18.9084179907
 C        -0.1539517361        4.6820057544      -24.6409419192
 C         1.4003546477        6.6964251198      -25.0592937737
 H        -1.5339160820        7.7612526924      -22.3376964846
 H        -1.9362490457        5.9671302161      -22.8029908591
 H        -1.6579169698        7.2389993678      -24.1540113333
 H         3.3045252485        6.6314616002      -22.9493411748
 H         3.9183827663        5.3007828782      -23.6771884195
 H         3.0525562413        5.1870057733      -20.5879519499
 H         4.6603422523        5.8245295862      -21.1998154606
 H         6.4049605164        0.5237751387      -19.4115846666
 H         5.9653158462        0.3832291389      -21.0049351163
 H         4.2428462855       -0.6553648963      -18.6692633605
 H         5.0415005537       -1.5647820253      -19.9197249028
 H         0.3122689238       -0.2819139618      -17.6815918709
 H        -0.2604240631       -1.6200848506      -18.7045358771
 H        -1.8557553604       -0.1233094725      -19.6323448471
 H        -1.4210888458        1.2895543006      -18.7745773070
 H        -3.6827549616        1.6609786038      -14.4204548657
 H        -2.1649090457        2.5616947463      -14.5728197764
 H        -2.4972539820        1.8131075825      -12.2401263172
 H        -0.9594186783        1.1711302509      -12.9845994423
 H        -3.3262322274       -3.0942472159       -9.7385214210
 H        -4.1507141745       -2.8110965165      -11.2285836890
 H        -5.9164016326       -3.1994391846      -10.4891439373
 H        -5.9281114000       -1.5100885091       -9.9114564957
 H        -7.6823044452       -5.6665124027       -7.6115527261
 H        -8.9800165094       -5.0305881152       -6.7757486067
 H        -6.6479577303       -6.0370754271       -5.1894702236
 H        -7.7363367193       -7.3476031682       -5.9082605924
 H        -6.9775810054       -8.9196010539       -1.9163871887
 H        -6.0117830978       -7.9034032436       -1.0103723681
 H        -4.6567876175       -9.3807689440       -2.0647463271
 H        -4.2089328364       -7.9424349856       -2.7166613616
 H        -5.1068706963       -7.0791794231       -6.1931280645
 H        -4.0445135410       -7.8619160824       -7.3423002463
 H        -3.6799279821       -5.3999827027       -7.3022469639
 H        -2.1999081738       -6.1214032863       -6.6597624573
 H        -2.1928794623       -1.3666281779       -7.0373394722
 H        -1.1210643856       -1.3261217004       -5.6820208366
 H        -3.7178349528       -0.2602898156       -5.0280421673
 H        -2.9916446693        0.6861911305       -6.3148697727
 H        -2.5271679495        0.7055714360       -0.5333174723
 H        -2.3595721427       -0.8091093530       -1.4938805750
 H        -4.5844738252        0.1562766142        0.2988072624
 H        -3.5699179643       -1.2028305680        0.6725793668
 H        -7.1739454272        0.5550989306       -1.5054351472
 H        -8.5854055325       -0.1992354387       -0.7029497204
 H        -8.6758650672       -0.6423639473       -3.6865278525
 H        -9.0612511197        0.9675570921       -3.0696339090
 H       -13.6822368170        1.5138644396       -3.7099959743
 H       -13.1777531530        1.5962621691       -5.3423202077
 H       -12.6455013983        2.8551714915       -4.4093135230
 H       -10.1300715426       -1.5091315664       -5.1716642709
 H       -12.0165622874       -1.3931328336       -5.3633193014
 H       -11.1001204219       -2.5378149638       -4.2600010194
 H       -13.0901358735       -0.4833650943       -2.0037677716
 H       -12.9012052027       -2.0467219788       -2.7736600628
 H       -13.6734289631       -0.5570574590       -3.6886961864
 H        -7.5902035955       -3.6525328059       -0.9127835472
 H        -6.6918625151       -3.8848033561        0.6524596108
 H        -5.8219061368       -4.1100538787       -0.7410120215
 H        -7.8808561581       -1.4612280218        1.1968146268
 H        -6.9578318359       -0.1622530144        0.6880218324
 H        -6.0793501091       -1.4088512751        1.6029403388
 H        -1.1282749706        1.9460073728       -2.0654126022
 H        -2.3614857924        2.9441176687       -1.6488263446
 H        -1.3643897708        2.9687048453       -3.2607391107
 H        -4.3050727242        3.1634346900       -3.6564470448
 H        -4.4792144311        1.7637347294       -4.6838561828
 H        -3.1094261012        2.9445417667       -4.9163296617
 H        -0.8452456900       -5.2112094416       -3.8647467821
 H        -2.2828991043       -4.6818196469       -2.9643709301
 H        -0.8484841787       -3.7122609791       -3.1564098244
 H        -0.8855510144       -5.0670665521       -6.3400179508
 H        -0.3503734501       -3.3543115165       -6.0292143565
 H        -1.7350538872       -3.8150756405       -7.1136706027
 H        -2.8108033110       -9.7587030224       -2.9578093466
 H        -2.0204606246      -10.5214685509       -4.2698142520
 H        -3.4398598958      -11.1769516733       -3.4779702453
 H        -5.4595005476      -10.0033496328       -6.2567509527
 H        -4.6821396472      -11.4404065376       -5.6792324623
 H        -3.8993377249      -10.4214813938       -6.8408069206
 H        -9.0764956362       -6.8096209260       -1.0640177913
 H       -10.3362242530       -6.4302335992       -2.0285942402
 H        -9.0130081468       -5.2266980645       -1.8124862368
 H        -9.6386452953       -8.3563661799       -4.3877408253
 H        -9.5253911300       -8.7981326701       -2.6049855681
 H        -8.1127623264       -9.1470137415       -3.7461452186
 H        -6.4811510228       -0.7784323471       -7.7746722041
 H        -7.4240153880       -1.4229059928       -6.3291451631
 H        -8.1893525339       -0.8431982341       -7.9427873107
 H        -8.1675105741       -4.3761842781       -9.0682110942
 H        -8.1162015549       -2.7522107646       -9.8680594161
 H        -9.2708559354       -3.1888692496       -8.6979653870
 H        -1.1902354038       -2.6982137903      -10.6621915077
 H        -0.6593818537       -2.0319773518      -12.1617056086
 H        -2.2959104093       -2.7937746685      -12.1788129474
 H        -1.6385994066        1.0406799569      -10.4865838495
 H        -0.1604572084        0.2125460665      -10.8653161562
 H        -0.9883674576       -0.2855208877       -9.4019887890
 H        -2.4372688509        2.4899074600      -17.8196981730
 H        -3.7345717169        2.7347628250      -16.6856282211
 H        -3.9939624876        1.9209307844      -18.1588598879
 H        -4.1436927083       -1.1460189701      -16.2118475205
 H        -5.3056199484        0.0924754242      -16.8622309371
 H        -4.7562520967        0.2593210202      -15.3144647374
 H         1.7937978764       -2.9137379168      -21.8182051344
 H         1.2518282588       -1.3606236009      -22.3285707332
 H         0.2534095801       -2.3357230884      -21.2178158688
 H         3.1295511011       -2.7766867972      -19.3024135713
 H         1.4310952602       -3.2272482039      -19.2229421164
 H         2.1639334827       -1.9888421236      -18.0977347523
 H         6.9794303653        2.8919588192      -21.3809423574
 H         7.1630466693        2.4954858788      -19.7724075174
 H         7.0869491703        4.1517418051      -20.2690839829
 H         5.2440169487        5.0243552070      -19.3248995464
 H         5.4503521496        3.8215370833      -18.1153297387
 H         3.8068103727        4.2458737407      -18.6705362156
 H        -0.5121929334        5.0367115172      -25.5691314691
 H        -0.8573521160        4.4334936136      -23.8423374505
 H         0.4160504472        3.7571871983      -24.6818014753
 H         2.1397982587        7.3118648763      -24.4843487043
 H         0.5806699147        7.3487202768      -25.4964606497
 H         1.8131807800        6.1323568430      -25.8726949626
 Na       -5.5290266283       -3.7690777340       -3.3104355681
 Na        2.2006431410        1.8755334074      -22.2793168383
