232

 C        -1.5408622426        6.9767132126      -23.0861247711
 C        -0.0277379460        6.7124889368      -22.8822947273
 O         0.6432920035        7.1749271803      -21.9646334775
 C         0.8218890114        5.6642216880      -23.9434840245
 C         1.8768478974        4.8875400920      -23.0807391255
 O         1.3857806843        3.9742645175      -22.5037215488
 C         3.2179285959        5.5548569428      -22.7119778457
 C         3.7163091846        5.1697188634      -21.3515739572
 C         4.4899853637        3.7878948936      -21.4339829097
 O         4.4038788148        3.0773748545      -22.4028307288
 C         5.2190271555        3.2458507671      -20.2046638739
 C         4.5118985389        1.8050437131      -19.9494008327
 O         3.3231665372        1.7430251398      -19.6697063543
 C         5.2911195484        0.5183738420      -20.1727256559
 C         4.4415093181       -0.6270621076      -19.8152204303
 C         3.2109070441       -0.6744548627      -20.7097717912
 O         3.2785094957       -0.1005862256      -21.8403279600
 C         1.9677803659       -1.2704266080      -20.2300377384
 C         0.8378213205       -0.1464619375      -19.8315611822
 O         0.6390969959        0.8260281639      -20.4636373371
 C        -0.0875575451       -0.6119007783      -18.7380001292
 C        -1.4283520480        0.2294544324      -18.7379771243
 C        -2.4659188395       -0.4494446431      -17.7061156518
 O        -2.7256172710       -1.6414213540      -17.7557210577
 C        -3.1400622897        0.5145065573      -16.6662399186
 C        -2.1320759050        0.8036813509      -15.5242382486
 O        -1.0319388292        0.2452027075      -15.5861264308
 C        -2.5343030328        1.6789649917      -14.2303286616
 C        -2.0151843231        1.0501381365      -12.9332858393
 C        -2.6891060718       -0.2808497564      -12.5898651730
 O        -3.4482948983       -0.9279390017      -13.3041827759
 C        -2.1526250778       -0.9605412667      -11.2258779874
 C        -3.5111306239       -1.1418308260      -10.3679721949
 O        -3.9143381507       -0.2638766110       -9.6751481810
 C        -4.1033593300       -2.6708666617      -10.3618083855
 C        -5.6067256654       -2.5643532001       -9.8355906830
 C        -5.7553478593       -3.1594019278       -8.4456966529
 O        -4.8839189693       -3.6488483834       -7.7298843290
 C        -7.2567741311       -2.9430194729       -7.8690791424
 C        -7.3261857784       -3.8289640386       -6.5814121972
 O        -6.7285652522       -3.5187021487       -5.5880864353
 C        -8.0081127103       -5.1867276606       -6.7523687767
 C        -7.7587625505       -6.1908870581       -5.5787491975
 C        -8.5947576790       -5.8960302550       -4.3399919838
 O        -9.4373469836       -4.9905997397       -4.3359277889
 C        -8.4613600672       -6.9407823677       -3.0312448995
 C        -6.9886713760       -6.8226640841       -2.5796552007
 O        -6.3850315905       -5.7921696087       -2.5610061176
 C        -6.2626419235       -8.0749643497       -1.9399898127
 C        -4.9864973737       -8.6211472933       -2.6949512508
 C        -5.1574130408       -8.9151412651       -4.2138012424
 O        -6.1832891628       -8.7179893545       -4.8026718356
 C        -3.9080330940       -9.5113257035       -4.9529584701
 C        -3.1534428364       -8.2189359478       -5.5010890808
 O        -2.0115146142       -7.9255319371       -5.2348280987
 C        -3.9659446475       -7.2539725063       -6.4362922147
 C        -3.2766704087       -5.8643554051       -6.5281468592
 C        -3.1880769574       -4.9746756784       -5.2582679519
 O        -4.1105641082       -5.1501020993       -4.4999719669
 C        -2.1713905378       -3.8872008214       -5.1878767643
 C        -2.8883320889       -2.4462968695       -5.1525361620
 O        -3.9552948903       -2.2788336656       -4.6615148728
 C        -2.2227932223       -1.2786514494       -5.8579760445
 C        -2.8124952756       -0.0006486419       -5.5142956970
 C        -2.1987058428        0.4768449680       -4.2506989538
 O        -1.0161838141        0.3303100199       -4.0998470930
 C        -2.9001016302        1.4908653875       -3.3249089834
 C        -3.8200328798        0.7650959515       -2.1519896563
 O        -5.0170888224        0.9714652692       -2.2206880515
 C        -3.0902656469        0.0735487125       -1.0114201010
 C        -4.1119217854       -0.6804299347       -0.0641119633
 C        -4.8508965257       -1.8112361296       -0.7396007270
 O        -4.2587890664       -2.4790075787       -1.5687959157
 C        -6.4187372992       -2.0685101911       -0.4116244553
 C        -7.1279282307       -1.4457015548       -1.7586237660
 O        -6.9577995032       -1.9454939821       -2.8315146508
 C        -8.0701598564       -0.1818018611       -1.5637708823
 C        -8.9535217705       -0.1008371981       -2.7739619053
 C       -10.3522728803       -0.7804352057       -2.4899136492
 O       -10.4336010166       -1.5018618578       -1.4741798005
 C       -11.5198544791       -0.5148658507       -3.5388233783
 C       -11.4209756796        0.9031144333       -4.1882354646
 O       -10.3705784110        1.4447562129       -4.4802783432
 C       -12.6693028378        1.7339187521       -4.2069734254
 C       -11.1764472308       -1.5661015170       -4.5825690456
 C       -12.8873795676       -0.9504578663       -2.9610526086
 C        -6.5396474224       -3.6111010991       -0.2802475662
 C        -6.8645564784       -1.3832777615        0.8554250567
 C        -1.9186646385        2.3709198316       -2.4958149552
 C        -3.7505853410        2.4179080010       -4.2710877565
 C        -1.5650733463       -4.1921560593       -3.7301211006
 C        -1.0365010665       -3.9564839241       -6.1865186855
 C        -2.9635063152      -10.2980474477       -4.0301434759
 C        -4.3919555738      -10.4751928924       -6.0796653213
 C        -9.4048182087       -6.3109081259       -2.0249568504
 C        -8.8689107084       -8.3247913266       -3.4160444393
 C        -7.3485162207       -1.3803156589       -7.5071656411
 C        -8.3482230194       -3.2305317430       -8.9211563743
 C        -1.5406599639       -2.3126388953      -11.6490983402
 C        -1.2163984010       -0.0389866494      -10.5031953928
 C        -3.4829350664        1.8735381515      -17.3287139407
 C        -4.4499009120       -0.0517320082      -16.1430696937
 C         1.4008359630       -1.9499517259      -21.5134509737
 C         2.2129048575       -2.3431952067      -19.1394429880
 C         6.7156763937        3.0866789132      -20.4590886629
 C         4.8212525201        4.0908145014      -18.9283596758
 C        -0.1860369716        4.5636878251      -24.6191779542
 C         1.3727261168        6.6209339114      -25.0403927109
 H        -1.6214740937        8.0193807974      -22.6987111061
 H        -1.9472413095        6.2151674233      -22.4262445030
 H        -1.8976061184        6.8303575947      -24.1442973785
 H         3.1257725659        6.6178847575      -22.7629898567
 H         4.0659717782        5.4651594667      -23.3994610882
 H         2.8933213896        4.8923664869      -20.6804046143
 H         4.3856896809        5.9339397437      -20.8245639837
 H         6.1518503339        0.5091346904      -19.6169111812
 H         5.8562078262        0.4239821765      -21.1913953129
 H         4.1134617426       -0.5972636355      -18.8238542591
 H         5.0509708100       -1.5401072901      -19.8923854278
 H         0.3550763850       -0.3175842408      -17.8333781324
 H        -0.2368378121       -1.7161500460      -18.7534611227
 H        -1.8401830149        0.2880062101      -19.7412580650
 H        -1.2368324324        1.2807729830      -18.4961256222
 H        -3.6346298919        1.7425951275      -14.3564190855
 H        -2.1311478608        2.6583446494      -14.4238025992
 H        -2.1793305850        1.8103565484      -12.1268643825
 H        -0.9231147808        0.8881727586      -13.1085888812
 H        -3.4373200880       -3.1735508579       -9.6470050079
 H        -4.1542856654       -3.2151596930      -11.2421559265
 H        -6.3034830755       -3.0982694684      -10.6440139719
 H        -5.8247803763       -1.5299044648       -9.7630300168
 H        -7.7710025435       -5.6856698528       -7.6942469983
 H        -9.0741350870       -4.9879735789       -6.8019299917
 H        -6.7049627112       -6.2135427825       -5.4160357558
 H        -8.1793937714       -7.1384859465       -5.9046776948
 H        -6.9236088214       -8.9240703087       -1.6981144491
 H        -5.8998212003       -7.7001627688       -0.9598164584
 H        -4.7325044313       -9.5505406591       -2.1540692978
 H        -4.0852945752       -8.0960553249       -2.5524878525
 H        -5.0115585550       -7.0150516949       -6.1422961206
 H        -4.1192740189       -7.7125690576       -7.4236353108
 H        -3.7143834508       -5.1574710411       -7.3420315547
 H        -2.2178878206       -6.0413391505       -6.7873284785
 H        -2.3737291509       -1.2516613597       -6.9739292624
 H        -1.1322697179       -1.1931217695       -5.7799617823
 H        -3.9368338191       -0.1143131690       -5.3990422993
 H        -2.5921006824        0.7353674287       -6.3247475182
 H        -2.6252408770        0.8172856294       -0.3485302316
 H        -2.3728966791       -0.6720762964       -1.3185868385
 H        -4.6981740300        0.0393080597        0.4924655512
 H        -3.5937462177       -1.2388653972        0.7348779565
 H        -7.3936235501        0.6475053067       -1.4145817426
 H        -8.6846180627       -0.1865869334       -0.6389628577
 H        -8.4475767124       -0.4120769479       -3.6380694237
 H        -9.1890197621        0.9236557951       -2.9322818044
 H       -13.4811918325        1.4166421241       -3.5355288659
 H       -13.1551001422        1.7041900786       -5.1342451280
 H       -12.3397678260        2.7175551728       -4.0960821920
 H       -10.1609837323       -1.4770824200       -4.8851342275
 H       -11.9360306634       -1.4369787720       -5.3991545227
 H       -11.1042977959       -2.5928017420       -4.0584801282
 H       -13.2423457991       -0.2949102829       -2.1275775890
 H       -12.8020282934       -2.0028184220       -2.6448884171
 H       -13.6127720720       -0.7410651059       -3.8057788436
 H        -7.4763541118       -3.9544694138       -0.6925427885
 H        -6.4659259959       -3.8864616687        0.7302633470
 H        -5.6310201545       -4.1180980289       -0.6214417402
 H        -7.8970503180       -1.3912268398        1.1069551049
 H        -6.6648830248       -0.2625555583        0.8336176839
 H        -6.2527861760       -1.8738861206        1.6345787390
 H        -0.9775221699        1.8680785434       -2.3990023798
 H        -2.1804767244        2.5138737954       -1.4777849319
 H        -1.4920271759        3.1962716597       -3.1466856869
 H        -4.3050881651        3.2227911961       -3.6784247680
 H        -4.5784075231        1.7231253498       -4.6139719223
 H        -3.2316406845        2.9753222493       -5.0776568977
 H        -0.9974567623       -5.1256584064       -3.7571766273
 H        -2.2575258241       -4.1835593957       -2.9084347298
 H        -0.7219394098       -3.4083244864       -3.5644989243
 H        -0.7138684488       -4.9686907855       -6.2312734618
 H        -0.3016247126       -3.2702671080       -5.9100233481
 H        -1.4187547298       -3.7679131172       -7.1634316064
 H        -2.6323896532      -10.0045202636       -3.0714487256
 H        -2.1033646431      -10.4950255274       -4.6537900003
 H        -3.4031594473      -11.2603093424       -3.7597388942
 H        -5.3931475619      -10.2759613793       -6.4633026573
 H        -4.3843507248      -11.5578012479       -5.8503421493
 H        -3.6385328200      -10.3274855730       -6.8871373590
 H        -9.6278950395       -6.9358445583       -1.1778619688
 H       -10.3856766985       -6.1440282544       -2.4946853107
 H        -8.8843300575       -5.3794244959       -1.7111996157
 H        -9.7715972541       -8.2424951717       -4.0757815976
 H        -9.1075577436       -8.8939059159       -2.4748411796
 H        -8.1646992799       -8.8609631300       -3.9742534779
 H        -6.4758009284       -0.8822075021       -7.8993441772
 H        -7.4040002275       -1.2008883111       -6.4619853237
 H        -8.1493506997       -0.8944749937       -8.0770494658
 H        -8.0695448506       -4.1278555850       -9.5117264227
 H        -8.5764109763       -2.4500713000       -9.5666563398
 H        -9.3022260439       -3.5761670564       -8.5506076332
 H        -1.4783990393       -2.7853011790      -10.6798459188
 H        -0.5148203954       -2.1033259559      -11.8575659733
 H        -2.0773864425       -2.7547682546      -12.4641134608
 H        -1.6882988388        0.9012688000      -10.2038989396
 H        -0.3968085455        0.3394405623      -11.2339007426
 H        -0.6039863744       -0.4331395664       -9.7191102346
 H        -2.6279087838        2.4913609297      -17.5695887283
 H        -4.0551065354        2.5742002784      -16.6999771403
 H        -4.0131126438        1.9019771601      -18.3026808580
 H        -4.3752589502       -1.0818974474      -16.1558597229
 H        -5.3393142090        0.3305912368      -16.5876435420
 H        -4.4654596062        0.2950693555      -15.1396958100
 H         1.9805420120       -2.7516891581      -21.9465946798
 H         1.2443185291       -1.1555677951      -22.3494997269
 H         0.4274763619       -2.4079776571      -21.2904361326
 H         3.0343517115       -2.9100875900      -19.5011784639
 H         1.3511908067       -3.0282441403      -19.0553034764
 H         2.5104893059       -1.8816680892      -18.2199525564
 H         6.9779459109        2.2931283706      -21.0756686988
 H         7.1643264918        2.8401232095      -19.5442390511
 H         7.1138805421        3.9318687984      -20.9055587768
 H         5.3152640187        5.0534566269      -19.1056361865
 H         5.1526361183        3.5805102301      -18.0126260917
 H         3.7799838929        4.2613564693      -18.9487585550
 H        -0.1489791034        4.8265812174      -25.7212715497
 H        -1.1212753540        4.4590024984      -24.1761789915
 H         0.3458300437        3.6674052570      -24.4291769817
 H         2.3251416753        7.1499877903      -24.6988312654
 H         0.5655061246        7.3473864949      -25.2071929251
 H         1.4792611634        6.1136207037      -25.9485894923
 Na       -5.3937882010       -3.7773322128       -3.4201606967
 Na        2.1852490225        1.8571168235      -22.1999079750
