232

 C        -1.5115981950        7.1946143673      -23.2027091251
 C        -0.2145506484        6.4691508282      -22.8453548573
 O         0.2229773506        6.8558672060      -21.7404257750
 C         0.6132774609        5.5792502703      -23.8036333032
 C         1.6310676148        4.8002446703      -22.8755773617
 O         1.3872799492        3.7032306322      -22.4905735137
 C         2.8734556220        5.6054187534      -22.5606527618
 C         3.6714252665        5.2443840228      -21.2570400953
 C         4.5138214593        3.9762556679      -21.3738165670
 O         4.3454613931        3.2626458641      -22.3538294584
 C         5.1770016024        3.3380834573      -20.1420306267
 C         4.5534614809        1.8746065258      -19.9442156604
 O         3.3632678405        1.8644148075      -19.6226485887
 C         5.2968831578        0.5336616257      -20.1526608578
 C         4.4244720299       -0.6753666498      -20.0029706480
 C         3.1433486690       -0.7523232970      -20.9995724882
 O         3.0708913475       -0.2938874114      -22.1334502435
 C         1.8260917581       -1.4330214978      -20.4572121279
 C         0.7754390394       -0.2963976804      -19.8901338919
 O         0.6867415725        0.7984346680      -20.3595483398
 C        -0.3234724849       -0.8231401943      -18.9510281193
 C        -1.3118943512        0.2660010487      -18.6602677548
 C        -2.4218937155       -0.2625301667      -17.7292133257
 O        -2.6307948424       -1.4483228612      -17.9534195100
 C        -3.1809489282        0.6083355646      -16.6973395719
 C        -2.0344086127        0.8576530554      -15.5423427036
 O        -0.8537774374        0.8306837744      -15.9163545861
 C        -2.4579384230        1.4659559313      -14.1570655626
 C        -1.8080980480        0.8703625284      -12.8986593638
 C        -2.5620584077       -0.4234923851      -12.4824229850
 O        -3.4605030017       -0.9028688835      -13.1547512984
 C        -2.1479058356       -1.2560576126      -11.2168139756
 C        -3.5110475627       -1.4359215967      -10.4788301929
 O        -3.8368138301       -0.6220025797       -9.6749434833
 C        -4.2946300598       -2.6958640904      -10.7398513779
 C        -5.7591457040       -2.6213520375      -10.2004421440
 C        -5.9569072033       -3.1434071138       -8.7408404135
 O        -5.0153220275       -3.7128062972       -8.2468070312
 C        -7.2987265932       -2.9041529040       -7.9241388164
 C        -7.3194235608       -3.9023249142       -6.6652837995
 O        -6.6545591578       -3.6438929394       -5.6751083199
 C        -8.2996735538       -5.1274516406       -6.6818523945
 C        -7.8742959636       -6.0898854043       -5.5061369427
 C        -8.5388394946       -5.7048491387       -4.2014406870
 O        -9.2869526574       -4.7332945954       -4.0978537622
 C        -8.4047187086       -6.8296024520       -3.0775206011
 C        -6.9236006767       -6.8830712314       -2.7810555294
 O        -6.2033404403       -5.8935677698       -2.8072035489
 C        -6.2534537477       -8.2124101511       -2.1763798479
 C        -4.8856460370       -8.5078031060       -2.8215002463
 C        -5.0981263206       -8.8108970148       -4.2928580434
 O        -6.1632637417       -8.6980501394       -4.9038239763
 C        -3.7729802792       -9.3145440738       -5.0662327805
 C        -3.0541279677       -8.0675938883       -5.5810505915
 O        -1.9627371134       -7.8098746696       -5.1706766971
 C        -3.6270902010       -7.2148120545       -6.6709107882
 C        -2.7032598028       -5.8887620701       -6.7637191264
 C        -2.9740129634       -5.0154225019       -5.4789304518
 O        -3.8158897164       -5.2208065822       -4.5940160414
 C        -1.9759798121       -3.7662068125       -5.2247914439
 C        -2.8132082976       -2.2761161705       -5.3667415101
 O        -3.7583925722       -2.1632657308       -4.6941717386
 C        -2.4220564808       -1.0216924532       -6.1443504251
 C        -2.9916531570        0.1853255797       -5.4596278504
 C        -2.4234354175        0.5185595794       -4.1310849980
 O        -1.4548827512       -0.0907092610       -3.6826404301
 C        -3.0685554443        1.6999610611       -3.2169560509
 C        -3.8663152714        0.8449551679       -2.1770951512
 O        -5.0533214973        0.7597945914       -2.3527682563
 C        -3.1198357432        0.1176004549       -0.9869360494
 C        -4.2414888609       -0.4539309119       -0.1291602147
 C        -4.8451543475       -1.7860923990       -0.6791487068
 O        -4.2377175796       -2.4667202216       -1.4997005511
 C        -6.2918413900       -2.2232547522       -0.3033504227
 C        -7.1428356062       -1.6353655714       -1.5481901127
 O        -7.0246815084       -2.1326387243       -2.6159763849
 C        -7.9841607450       -0.3223953793       -1.2987946663
 C        -8.9024808740        0.0673306540       -2.4990927049
 C       -10.2917972742       -0.6530231926       -2.2290442125
 O       -10.4029344836       -1.3989443225       -1.2832014290
 C       -11.3665902314       -0.6265717819       -3.3487012517
 C       -11.3579254412        0.8988659458       -3.9613585540
 O       -10.4666561331        1.3222116967       -4.6832316949
 C       -12.6924682779        1.6795265289       -3.8708560838
 C       -11.0669905817       -1.4674163677       -4.6002804772
 C       -12.6659698363       -1.1628571159       -2.6965773650
 C        -6.4705024105       -3.7221988090       -0.4080932932
 C        -6.7351556557       -1.7086735487        1.0505772154
 C        -1.9343807578        2.4422361439       -2.5791027130
 C        -4.0160770214        2.7143370241       -3.9214846860
 C        -1.4870891356       -3.8086536881       -3.7578596536
 C        -0.7546281519       -3.8053679858       -6.2514597338
 C        -2.9679798872      -10.3157171995       -4.2126771111
 C        -4.3969949584      -10.0316074830       -6.3141279437
 C        -9.0564992793       -6.3935205459       -1.7351703621
 C        -9.0411470978       -8.1310007883       -3.5425630260
 C        -7.3096929508       -1.5191803582       -7.2232068892
 C        -8.4995392670       -3.0425158431       -8.7875420485
 C        -1.4024881838       -2.4605945250      -11.6239482903
 C        -1.2450939223       -0.4175043540      -10.3396402274
 C        -3.6649547485        1.9501032075      -17.2553005960
 C        -4.2874589008       -0.3334751526      -16.0710939384
 C         1.1401017142       -2.1742421629      -21.6115938191
 C         2.1364797512       -2.5719076148      -19.4069688370
 C         6.7227985782        3.3348286237      -20.6001193065
 C         5.0487687795        4.2461588623      -18.8705899872
 C        -0.3302667903        4.4786801849      -24.5133574248
 C         1.3428694830        6.4993768405      -24.8579004573
 H        -1.2293669105        8.2415844801      -23.2991318252
 H        -2.1375734378        6.8753264176      -22.3899424886
 H        -1.9479984315        6.9391602305      -24.1810401894
 H         2.6100651258        6.6196379791      -22.3464732903
 H         3.5914813779        5.7782006569      -23.4439846637
 H         2.9416625142        5.0757297513      -20.4360961115
 H         4.4196092276        5.9793656610      -20.9049769940
 H         6.1264500231        0.4131449076      -19.4362281574
 H         6.0697734395        0.6305577147      -20.9803177696
 H         4.0153355610       -0.7768370993      -18.9591739940
 H         5.0023034386       -1.5474274947      -20.1322041018
 H         0.1937998861       -1.0896386027      -18.0403826297
 H        -0.8218354389       -1.7065218394      -19.4543614306
 H        -1.7597292123        0.6535452926      -19.5510457319
 H        -0.6736889323        1.1531511293      -18.3219602832
 H        -3.5292776112        1.4139388409      -14.0762888040
 H        -2.3005140158        2.5454066553      -14.3641586241
 H        -1.8500684788        1.6483138638      -12.1792397119
 H        -0.7015247320        0.6574300377      -12.9876027525
 H        -3.9787897424       -3.5911982208      -10.1795571818
 H        -4.2992414990       -2.9423030812      -11.7882874102
 H        -6.4085781049       -3.2982713017      -10.8269793182
 H        -6.0980316656       -1.6207916595      -10.2649046806
 H        -8.1665238952       -5.6740846997       -7.5914814577
 H        -9.3723212802       -4.9820404495       -6.5703842982
 H        -6.7284075658       -6.1679513313       -5.4430941129
 H        -8.3683465757       -7.0327761530       -5.7715033367
 H        -6.9079245473       -9.0278486079       -2.3754414637
 H        -6.2183879955       -8.1031943770       -1.1474128459
 H        -4.3073483839       -9.3598202846       -2.4003786261
 H        -4.2238145848       -7.6477923678       -2.6293440278
 H        -4.7061325219       -7.0677319300       -6.4280975074
 H        -3.7672992399       -7.6561664577       -7.6698079518
 H        -2.9107066036       -5.1987518497       -7.5444139880
 H        -1.6729678388       -6.1525174090       -6.8934189826
 H        -3.0105981971       -1.0747431061       -7.0225178576
 H        -1.4002225344       -0.7822542893       -6.5060431895
 H        -4.0033470218        0.0493697843       -5.3544294938
 H        -2.8679439018        1.1147004728       -5.9979866908
 H        -2.5733154889        0.7827349087       -0.2916709060
 H        -2.4254691538       -0.7195391921       -1.2050283005
 H        -5.0140880920        0.2551470802        0.0886445011
 H        -3.8230758938       -0.6138844850        0.9042605535
 H        -7.2572842760        0.5628182950       -1.1100389616
 H        -8.5189861569       -0.4127066528       -0.3379592561
 H        -8.3192828767       -0.2043733216       -3.4468074096
 H        -8.9810213597        1.2340037425       -2.5558364275
 H       -13.2568220108        1.7437970350       -2.8283348007
 H       -13.4457143670        1.1286775722       -4.4593532209
 H       -12.5288444416        2.6670904041       -4.2903039445
 H       -10.2694194932       -1.0734228879       -5.2295972973
 H       -11.9552875107       -1.4926635635       -5.1645271819
 H       -10.8429975086       -2.4942613180       -4.2488899187
 H       -12.8721935558       -0.6744879924       -1.8089013316
 H       -12.3442961448       -2.1549522369       -2.6665348650
 H       -13.6033517224       -1.1409366462       -3.2892065388
 H        -7.4368704069       -3.8773786165        0.0787575072
 H        -5.7119742685       -4.3395279067        0.1156816201
 H        -6.3892265778       -4.1274224294       -1.4523061617
 H        -7.7095374828       -2.1617525482        1.3610071106
 H        -6.7697744872       -0.6148097127        1.0116318420
 H        -6.0818299394       -2.0003744886        1.8581875314
 H        -1.2779938801        1.9388776910       -1.9665991942
 H        -2.3288268863        3.2195838570       -1.8977459313
 H        -1.2726276569        2.9560507910       -3.3447254266
 H        -4.2778278067        3.4866374324       -3.2077317288
 H        -4.8809465213        2.2973475466       -4.3157716436
 H        -3.4435440299        3.1889704999       -4.6421211216
 H        -0.9122875396       -4.6426523809       -3.5168955848
 H        -2.3800151578       -3.9968582223       -3.2461618022
 H        -0.9888452782       -2.9221535783       -3.3618283835
 H        -0.0782216175       -4.7034803128       -6.0787262304
 H        -0.2004245212       -2.8977216216       -5.9030953325
 H        -0.8578026578       -3.7099612470       -7.3618601295
 H        -2.3410880391      -10.0057262227       -3.3836493571
 H        -2.2903776258      -10.8612871969       -4.8342700293
 H        -3.6799753362      -11.0104771796       -3.6961440649
 H        -4.9985321795       -9.3904232027       -6.8823885085
 H        -5.1152593939      -10.7585472531       -5.9606309660
 H        -3.6771326172      -10.4928243938       -6.9617065882
 H        -8.9870815793       -7.0930045957       -0.9193315490
 H       -10.0885031664       -6.1054322407       -1.9026627890
 H        -8.4763696222       -5.5117765416       -1.4477151237
 H        -9.9794137622       -7.8845374908       -4.1240704361
 H        -9.1670274210       -8.8808481390       -2.7270184168
 H        -8.3725835850       -8.5069798587       -4.2979184348
 H        -6.9392804114       -0.6792446115       -7.9258805179
 H        -6.6634102424       -1.4748910884       -6.2861960540
 H        -8.4116650049       -1.4809916933       -6.9537323152
 H        -8.8613938762       -3.9711354360       -9.2467719170
 H        -8.3323912977       -2.4421988188       -9.7006022124
 H        -9.3910729726       -2.5884209179       -8.2482715436
 H        -1.0248743446       -2.8496858799      -10.6040869745
 H        -0.5872323170       -2.1308415988      -12.2973825802
 H        -2.0540166204       -3.0803674446      -12.1544130599
 H        -1.7805711790        0.4859520922       -9.9983025156
 H        -0.1536636591       -0.1131999269      -10.6834935767
 H        -1.0215693120       -0.8739134080       -9.4273361379
 H        -2.8527617765        2.6298441693      -17.6475128832
 H        -4.2641332339        2.6584967984      -16.6589074552
 H        -4.3480077665        1.9204490808      -18.0781469438
 H        -3.7386191351       -1.1764635023      -15.5928300622
 H        -4.8254613277       -0.8006660477      -16.9486309865
 H        -5.0028095796        0.1789382546      -15.3694133686
 H         1.7736762609       -2.8853694329      -22.0251170067
 H         0.9025586313       -1.4613058094      -22.4163015823
 H         0.2575039890       -2.7191611700      -21.2983682117
 H         3.0525396361       -3.0258701487      -19.7483699671
 H         1.3100769570       -3.3279093255      -19.3829529898
 H         2.2657388491       -2.1358572778      -18.4169774114
 H         6.9533403247        2.7338541842      -21.5208288304
 H         7.3950631110        2.8297365616      -19.8815736699
 H         7.0032412421        4.4072855306      -20.8612793553
 H         5.2780606316        5.2922614830      -19.1357066102
 H         5.7373626852        3.8613957888      -18.1150941678
 H         4.0110630686        4.1402737493      -18.5970745153
 H        -0.3388405639        4.6883171808      -25.6208784314
 H        -1.3307053232        4.7609906694      -24.2262838847
 H        -0.0361104492        3.4650915526      -24.1989151045
 H         1.6030094988        7.5559696144      -24.4402560095
 H         0.7775579341        6.6870149173      -25.8153924230
 H         2.2255292086        6.0122450217      -25.0865055912
 Na       -5.4125700156       -3.6201827854       -3.5592992262
 Na        2.1921196297        1.8436408408      -21.6962036240
