232

 C       -22.3012475861       -6.7876086140       -2.6779537586
 C       -21.1170253661       -5.8995482255       -3.0516452371
 O       -20.2601016060       -5.7212777934       -2.2574235110
 C       -21.0948064902       -5.2818469881       -4.5298882239
 C       -20.2482038758       -3.9944279964       -4.6446092053
 O       -19.9365169701       -3.4206488646       -3.6266554127
 C       -19.7832241609       -3.4184402703       -5.9961444393
 C       -18.6155759829       -2.4433348279       -6.0083817728
 C       -17.5595168805       -3.0076953799       -5.0327553311
 O       -17.6037854133       -4.2261175012       -4.7933094029
 C       -16.5827319087       -2.0249943984       -4.2170847370
 C       -16.2389443489       -2.6603387253       -2.8538477079
 O       -17.0058814658       -2.6446403134       -1.9164818331
 C       -14.9547055369       -3.5647882981       -2.7034118331
 C       -14.7389768526       -3.9725565447       -1.2440074984
 C       -15.3751844382       -5.3583321014       -0.9792719232
 O       -16.4316767734       -5.7167626771       -1.4664035721
 C       -14.6487631265       -6.3867061497       -0.0758964516
 C       -13.3916054551       -6.8356339995       -0.9967547275
 O       -12.7669180865       -5.9297833901       -1.5054051709
 C       -12.8166410107       -8.2766960525       -0.9364026273
 C       -11.4377242056       -8.4188919942       -1.4909967748
 C       -11.1307979109       -9.9005916222       -1.9740654031
 O       -12.0523749651      -10.7022519592       -1.8304557584
 C        -9.7640025952      -10.2651785558       -2.5828320526
 C        -8.6608574953       -9.1826052992       -2.4581899670
 O        -8.5478836496       -8.5380666548       -1.4325013904
 C        -7.7149928182       -8.9512883973       -3.6428087905
 C        -6.8747376934       -7.7154972773       -3.4574258788
 C        -7.0969620841       -6.5530452359       -4.4967745625
 O        -7.9083270465       -6.6684328275       -5.3936865185
 C        -6.1578351555       -5.3147742198       -4.5462129658
 C        -5.0051061713       -5.6376798254       -5.6553626753
 O        -3.9387044496       -5.9372569564       -5.1760434298
 C        -5.3596847194       -5.3092581276       -7.1418521452
 C        -4.2935243093       -5.5325356863       -8.2226963975
 C        -4.6723252326       -4.7615763193       -9.5523884684
 O        -5.5967176768       -5.2308810152      -10.1851326151
 C        -3.7922975038       -3.5267331702      -10.0107770025
 C        -2.3369272925       -3.8808109226      -10.4356152523
 O        -1.3695859748       -3.4485542109       -9.9231365272
 C        -2.2139110248       -4.5795475122      -11.8433275393
 C        -0.9283347655       -5.3096406398      -12.1849021602
 C         0.2003174610       -4.3311297204      -12.8171398671
 O        -0.1930149816       -3.1985578574      -12.9312749501
 C         1.7456202586       -4.6585784745      -12.9751818041
 C         2.6941732377       -3.4674663566      -13.2818453536
 O         3.7057080878       -3.7948601532      -13.8879281373
 C         2.4691505413       -1.9738130861      -12.8896228033
 C         3.7573300493       -1.4380768815      -12.3517093431
 C         3.5038407734        0.0524926607      -11.8200850236
 O         2.4644994068        0.5869035319      -11.5344618113
 C         4.9407135619        0.9253906395      -11.6801401115
 C         4.9039498747        1.6829835221      -13.0670157484
 O         5.4651565133        1.2643384425      -14.0630783470
 C         3.8760697163        2.8485382541      -13.2134795410
 C         4.2055447437        4.2179200368      -12.5384728785
 C         5.4156450705        5.0151364238      -13.2936749250
 O         5.8866295134        4.5096996135      -14.2661201448
 C         6.0945936596        6.4073320751      -12.7862124084
 C         6.7605982666        6.9943900060      -14.0789245972
 O         6.0842711786        7.8502386795      -14.6195853600
 C         8.0305271505        6.4401926060      -14.6586188036
 C         8.2497043104        6.8060673259      -16.1259410175
 C         7.3228059836        5.9670140741      -17.0828425704
 O         6.9912645528        4.8189984912      -16.8480495743
 C         6.8465176825        6.8508058867      -18.3478742549
 C         8.0918796968        7.4807059908      -19.2466447168
 O         8.7897301916        8.2380267307      -18.6773194944
 C         8.3226983514        6.9968203840      -20.7127725767
 C         9.6791077428        6.2336406061      -20.9159702052
 C         9.8161606298        4.8239480528      -20.2970784429
 O        10.0593688590        4.6801213180      -19.1099174810
 C         9.7805794171        3.5050840631      -21.1682160785
 C         8.9349978514        2.4281074701      -20.3403275858
 O         7.7339230902        2.3984077376      -20.3980550627
 C         9.5521629849        1.5685576088      -19.3302128874
 C         8.7019885319        0.4257557114      -18.6390841881
 C         7.5221989896        0.9942015189      -17.8761223145
 O         7.8454761536        1.6931159567      -16.9369506641
 C         6.0137952841        0.6331876978      -18.1906765427
 C         5.1100678045        1.9318662004      -18.4994910869
 O         4.8493266289        2.7699640485      -17.6382158258
 C         4.3470632040        2.0461430335      -19.9081183093
 C         6.1184704372       -0.3364171866      -19.3946140070
 C         5.3822180568       -0.0701145050      -16.8951496905
 C         9.0019211521        3.6585186310      -22.5648685073
 C        11.2026247936        2.9631737135      -21.3472610980
 C         5.9725597316        5.9203959280      -19.1266198776
 C         6.0152434855        8.0687638271      -17.8754943997
 C         5.1717049407        7.4435193335      -12.1640296353
 C         7.2146393650        5.9261985028      -11.7978717285
 C         5.1875320171        2.0350172234      -10.5480271199
 C         6.1722084737       -0.1311766603      -11.6230718233
 C         2.1784793810       -5.4721527488      -11.7376409351
 C         2.0348703997       -5.6924813667      -14.2445951869
 C        -4.5953175610       -3.0164788118      -11.2905407166
 C        -3.7852817939       -2.4610564788       -8.8727151779
 C        -6.9153675396       -4.0069603455       -4.8444899455
 C        -5.5536811470       -5.0321391066       -3.1425614873
 C        -9.2916888625      -11.6903570588       -2.0173014832
 C       -10.2230881140      -10.5141919364       -4.0397463252
 C       -13.8655648383       -5.6317454495        1.1023080585
 C       -15.5636659383       -7.4433212026        0.5345084889
 C       -15.3418506487       -1.8312262273       -5.0951852960
 C       -17.1905130037       -0.6887359308       -3.8929929190
 C       -20.5936564568       -6.4138280272       -5.4763154700
 C       -22.5628795546       -4.9546095833       -5.0292790125
 H       -22.8715698187       -6.2423810531       -1.8301377447
 H       -21.8707563661       -7.7005720188       -2.2883245283
 H       -22.9191337526       -7.0564983312       -3.5704001288
 H       -20.6694521045       -2.9708818976       -6.4677172572
 H       -19.5559917710       -4.3282257763       -6.6384426687
 H       -18.9404959847       -1.4079375598       -5.8464161784
 H       -18.1582324669       -2.3652950731       -7.0200540428
 H       -14.0639523241       -3.1267971637       -3.0850817182
 H       -15.1740140004       -4.4792221491       -3.2832181958
 H       -15.2738368803       -3.3161705165       -0.5480505985
 H       -13.7056104754       -4.1512897190       -1.0104836135
 H       -13.4225659005       -9.0720108514       -1.3145538520
 H       -12.7837751339       -8.3597574064        0.1720847485
 H       -10.6525491673       -8.0827051892       -0.7360311378
 H       -11.4134884116       -7.8373998693       -2.4123455611
 H        -8.2459001887       -8.8295788146       -4.5610616740
 H        -7.1704481928       -9.8544511104       -3.7261914306
 H        -5.8002473183       -8.0758110738       -3.4320551240
 H        -7.0832860410       -7.3313111224       -2.4863918405
 H        -5.6655108212       -4.2493235192       -7.1741030624
 H        -6.2667261540       -5.8775179010       -7.3263283879
 H        -4.1611136208       -6.5410964987       -8.4523413075
 H        -3.3426871695       -5.0691568214       -7.9500741565
 H        -2.3665257965       -3.7333342359      -12.4852905636
 H        -3.1272193775       -5.1760080229      -12.0619731553
 H        -1.1059035187       -6.2114372800      -12.7749135394
 H        -0.4648066560       -5.7715597542      -11.2314606512
 H         1.6183016260       -1.7751808446      -12.2534796356
 H         2.2242297190       -1.4286231698      -13.8016681089
 H         4.5783958403       -1.4397671537      -13.0760642822
 H         4.0610572327       -1.8766943232      -11.4139690520
 H         2.9712538290        2.4847063317      -12.7266503289
 H         3.8613198721        3.0222494076      -14.2899547807
 H         4.4910074367        4.1540193671      -11.4682507540
 H         3.2798805399        4.8296857781      -12.6876758730
 H         8.1470860425        5.3718986702      -14.4303183429
 H         8.9131738288        6.8154781656      -14.0881227404
 H         9.2738290073        6.3376080877      -16.4685486461
 H         8.2314586786        7.8324199049      -16.3096644763
 H         8.1979240706        7.8434450653      -21.3765987667
 H         7.5068952426        6.3730060454      -21.0290800506
 H        10.4413388139        6.8258786818      -20.4557138111
 H        10.0184037802        6.1307295728      -21.9873094738
 H         9.9517661903        2.3621100689      -18.6611695783
 H        10.4735587736        1.1349110741      -19.4554401076
 H         9.3179061048       -0.1044232420      -17.8483474060
 H         8.4547982616       -0.2793219899      -19.4346485730
 H         3.6565265998        1.1538499295      -20.0744890625
 H         5.0811500794        2.0983871437      -20.6502971072
 H         3.8833641462        2.9731971125      -19.8123386246
 H         5.0939765391       -0.6307477517      -19.6840698038
 H         6.6472686157       -1.2341327537      -19.1272249407
 H         6.5053185912       -0.0251359195      -20.3895157424
 H         6.0849041712       -0.2126609849      -16.0863738349
 H         4.9027403378       -1.0692402080      -17.0911039571
 H         4.5719620790        0.5046888178      -16.3780267319
 H         8.4294897152        2.7062540668      -22.8278460739
 H         9.5702524059        3.9344226821      -23.3945369335
 H         8.2053862932        4.4011228451      -22.5338531013
 H        11.0175699737        1.8895567633      -21.5010376775
 H        11.7483457510        3.0957059390      -20.4297528799
 H        11.6282056207        3.3740125528      -22.2520050266
 H         5.2563383029        5.4108871200      -18.4808653164
 H         6.5219106804        5.1261779991      -19.6878549408
 H         5.3884728930        6.4983661489      -19.9412996924
 H         6.7029501978        8.6406335203      -17.2132638850
 H         5.1513119230        7.8867812837      -17.2816717344
 H         5.7918147044        8.6894038744      -18.7392155856
 H         5.7135853742        8.3449536379      -11.9800241690
 H         4.7175276361        7.1006289852      -11.1490068636
 H         4.3370661000        7.7404207290      -12.8357553718
 H         6.7531086423        5.6905779912      -10.9093383456
 H         7.8969315438        6.7537023662      -11.6050636408
 H         7.8047266824        5.0982105714      -12.0224136138
 H         5.9822925426        2.7189941982      -10.9351665613
 H         5.4002623077        1.6228495569       -9.5463549167
 H         4.2952738342        2.6857259565      -10.5116769438
 H         5.9110350935       -1.0605643830      -10.9967235525
 H         7.1049468751        0.3411689493      -11.4065029465
 H         6.4046055246       -0.5839016302      -12.5984264093
 H         2.1480196737       -4.7800643948      -10.8741740368
 H         3.1813243741       -5.7611849150      -11.8459250155
 H         1.6117430879       -6.3046040236      -11.4335464089
 H         2.7544467407       -6.4650687406      -13.9351263763
 H         2.5332974224       -5.1017961088      -15.0282042754
 H         1.1720857266       -6.1941866892      -14.6273264958
 H        -5.5272898471       -2.5046674208      -11.0522216691
 H        -4.9340009814       -3.9350267874      -11.7739617836
 H        -3.9591517578       -2.5350181848      -11.9731910749
 H        -4.0194231806       -1.5326506470       -9.3246610917
 H        -2.7583362556       -2.5049304397       -8.5609238988
 H        -4.5010348528       -2.6765410764       -8.0703578323
 H        -7.9189307459       -4.2618267726       -5.3270141069
 H        -6.3650280981       -3.2436568681       -5.4492734283
 H        -7.1678474061       -3.4890504542       -3.9308094255
 H        -6.2807888041       -4.7958333470       -2.3924564169
 H        -4.8055292630       -4.2583433414       -3.0523089644
 H        -5.0509353999       -5.9926154501       -2.9065814359
 H       -10.1479678497      -12.4070167748       -2.2634137850
 H        -9.2831104448      -11.7696276049       -0.9447752472
 H        -8.3821852769      -11.9994064421       -2.4928641315
 H       -11.0980755344      -11.0990999306       -4.1538536083
 H        -9.3321869783      -10.9036728879       -4.5778214212
 H       -10.5917608567       -9.5470581643       -4.3226298008
 H       -14.4799420492       -4.9788418788        1.6389075952
 H       -13.1508584144       -5.0197358062        0.4591100174
 H       -13.3972036988       -6.3371828267        1.7531130514
 H       -16.1857993798       -7.9674625133       -0.2000563955
 H       -16.1494085052       -6.9662674014        1.2945049533
 H       -15.0416132295       -8.2034702824        0.9539163404
 H       -14.8031560715       -2.7594939789       -5.1762934652
 H       -14.6459538351       -1.1203488604       -4.6447744089
 H       -15.5905564379       -1.5050132052       -6.1271238141
 H       -18.2222568363       -0.8008885836       -3.5318950520
 H       -17.2995309499       -0.1305105660       -4.8025754627
 H       -16.7908871965       -0.2003231546       -3.0952262022
 H       -19.4289032102       -6.4821450877       -5.3815263036
 H       -20.8357514015       -6.1871526474       -6.5514540557
 H       -21.0452878404       -7.2852432349       -5.0794136537
 H       -22.4268914213       -4.4714291940       -5.9280871333
 H       -23.0967409498       -4.3061054863       -4.3179809313
 H       -23.0363568885       -5.9419485098       -5.2326601014
 Na      -18.2473993408       -4.6553519565       -2.7204725226
 Na        6.0954000359        2.9360485798      -15.7837461830
