232

 C        -1.4969409379        7.5090733974      -23.4405737398
 C        -0.4714270949        6.5766765047      -22.7682933274
 O        -0.5038684882        6.3728878726      -21.5741205059
 C         0.3634782069        5.6280798857      -23.6884602082
 C         1.4512678673        4.8647705694      -22.7970644378
 O         1.3633816820        3.7452115863      -22.4734800532
 C         2.6409872725        5.6746846322      -22.3149651607
 C         3.3316190889        5.0365615268      -20.9995911822
 C         4.2692665539        3.8462767183      -21.2777823180
 O         4.3042474644        3.2943172608      -22.3611502275
 C         5.2653026670        3.3114109545      -20.1976090279
 C         4.6304702095        1.9614953919      -19.7798217553
 O         3.6387160335        1.9777667171      -19.0643268696
 C         5.0704462817        0.6704602157      -20.4798896904
 C         4.2402102818       -0.5210101923      -20.0746180080
 C         3.0459125952       -0.7237402469      -21.0728346453
 O         3.0185751430       -0.1679049106      -22.1734424186
 C         1.7608875700       -1.5818140066      -20.6218001335
 C         0.7299596755       -0.4650176465      -20.1704127921
 O         0.7518252081        0.6779587937      -20.5363933485
 C        -0.3012642071       -0.9425793856      -19.1237664414
 C        -1.1440688888        0.1417298311      -18.4741355441
 C        -2.4321427513       -0.3449147967      -17.7517423489
 O        -2.9645718599       -1.3982676378      -18.0660948033
 C        -3.0008963000        0.5205628584      -16.5643390903
 C        -2.0401594219        0.9456338020      -15.4868385500
 O        -0.8901875566        1.1898826640      -15.8391066101
 C        -2.4535533659        1.3263065468      -13.9806404052
 C        -1.7828173689        0.4638065672      -12.9106168845
 C        -2.6568100422       -0.7164519388      -12.5240994314
 O        -3.5996187315       -1.1667682412      -13.1930544364
 C        -2.2929421273       -1.4454620770      -11.1207740423
 C        -3.5999555054       -1.6397148205      -10.2355393946
 O        -3.7196032224       -1.1298644290       -9.1491803577
 C        -4.6880284357       -2.5295576814      -10.9000509524
 C        -6.1115760321       -2.5618576676      -10.2922951006
 C        -6.0192983127       -3.2510157644       -8.8995237956
 O        -5.0456775454       -3.9741653937       -8.6392817625
 C        -7.1082412868       -2.8652773927       -7.9181000931
 C        -7.0634526448       -3.7330046775       -6.6675515070
 O        -6.2397100284       -3.6595253634       -5.8073399816
 C        -8.2061163922       -4.7330934818       -6.5724011471
 C        -8.0309608938       -5.9176641688       -5.6390986830
 C        -8.4984218515       -5.6079858366       -4.2282390724
 O        -9.1444248642       -4.5885043720       -3.9640457965
 C        -8.3346162319       -6.6365216370       -2.9792050722
 C        -6.7534090195       -6.7981378034       -2.8728011831
 O        -5.9859209215       -5.9983836303       -3.3311898042
 C        -6.1697354541       -8.0944581020       -2.2333624925
 C        -4.8491189384       -8.5794770147       -2.9716706697
 C        -4.9183040946       -8.6563270718       -4.5580806554
 O        -5.8850709848       -8.2686626864       -5.1629134159
 C        -3.6996286376       -9.1787801930       -5.4308808998
 C        -2.7449957854       -7.8634577193       -5.5945879884
 O        -1.8411740669       -7.6652445021       -4.8160765330
 C        -3.1207713394       -6.9602745673       -6.6834356156
 C        -2.2108044226       -5.7193228480       -6.7481678693
 C        -2.7323503264       -4.7462670857       -5.6118963803
 O        -3.6920919339       -5.0443132503       -4.9207471231
 C        -1.9719533009       -3.3504983350       -5.3755908995
 C        -2.9989379113       -2.2435220189       -5.3730680151
 O        -4.0374628797       -2.2134962985       -4.7865037290
 C        -2.5109109932       -0.9461363496       -6.2079630635
 C        -3.0992628572        0.2957708386       -5.4671039947
 C        -2.6456607887        0.4481239726       -4.0105177478
 O        -1.9523739509       -0.3917160239       -3.4959189157
 C        -3.1347847839        1.6488547231       -3.1670385832
 C        -4.1047002195        0.8508033470       -2.1328759200
 O        -5.3104886745        0.7370689000       -2.2815626358
 C        -3.3290612825        0.1899138891       -0.9408988041
 C        -4.0072900355       -0.7754032374       -0.0944657916
 C        -4.8525907783       -1.8463281355       -0.8514961800
 O        -4.2762505266       -2.3398456815       -1.8235793325
 C        -6.1993478264       -2.3173805127       -0.3645646257
 C        -7.1908574658       -1.8043880607       -1.5459089733
 O        -7.2460510089       -2.4561554640       -2.5515548987
 C        -7.8860178076       -0.4798264385       -1.2167655067
 C        -8.8857868802        0.0211870123       -2.2354983818
 C       -10.2842566159       -0.7418985023       -1.9831069366
 O       -10.5403572486       -1.2397944670       -0.8558903486
 C       -11.2850566493       -0.6594643940       -3.1785438899
 C       -11.4128103578        0.7725433629       -3.7614999583
 O       -10.5713993092        1.2236241828       -4.5265091590
 C       -12.5340784762        1.5898607468       -3.2722983092
 C       -10.5874790424       -1.6325007084       -4.2778921109
 C       -12.5691885223       -1.4316135940       -2.7812815160
 C        -6.3026006099       -3.8906168313       -0.2806201235
 C        -6.6133798479       -1.8127681260        1.1003016725
 C        -1.8343209590        2.2652192997       -2.5763928088
 C        -3.9832690796        2.6289026172       -4.0321367686
 C        -1.3792164397       -3.2788307994       -3.8992989867
 C        -0.7818486182       -3.2203193091       -6.2784737183
 C        -2.9943818936      -10.3318713072       -4.6967868324
 C        -4.1937682596       -9.6483555351       -6.8667549634
 C        -8.8918965091       -6.0203117397       -1.6405254248
 C        -8.9972975602       -7.9903866662       -3.3164295051
 C        -6.7463230623       -1.3296919882       -7.4902552684
 C        -8.4955125434       -2.7803025163       -8.6716306649
 C        -1.7686513340       -2.9759852222      -11.5353726940
 C        -1.2891808966       -0.6766875953      -10.2390989396
 C        -3.5249681951        1.8274956816      -17.3333520832
 C        -4.1582626912       -0.2215111117      -16.0173212912
 C         1.3046020123       -2.2676628568      -21.9382449320
 C         2.1042183008       -2.7332653491      -19.6470151117
 C         6.5858231283        3.0966966972      -20.8101440479
 C         5.2810876415        4.1513955266      -18.9002427504
 C        -0.5662478914        4.5415916925      -24.2385046462
 C         1.0481312130        6.3806883243      -24.8332358241
 H        -1.0985947855        8.4746034017      -23.6501093533
 H        -2.4001595831        7.4254916641      -22.9451709324
 H        -1.6236810207        7.0895900430      -24.4004978927
 H         2.4373519804        6.6351320269      -21.9430344458
 H         3.4247647402        5.9241420010      -23.1220207211
 H         2.6437087097        4.6743207840      -20.2704742642
 H         4.0120665472        5.7422293066      -20.5727522911
 H         6.1480164926        0.5812575059      -20.4758191590
 H         5.0828947160        0.8124202278      -21.6689040140
 H         3.8984712169       -0.5436060302      -19.0318743979
 H         4.8054636544       -1.4684603932      -20.2869728031
 H         0.3251115014       -1.4470833550      -18.4167877441
 H        -1.1107995487       -1.5974676060      -19.5861712628
 H        -1.3643701291        0.9652125465      -19.1291163662
 H        -0.4411871510        0.5606617458      -17.6849669292
 H        -3.5364222197        1.3667313448      -13.7920970198
 H        -2.2714323975        2.4028442360      -13.8582395242
 H        -1.6657398599        1.0997359365      -12.0894186926
 H        -0.7040965218        0.3294490329      -13.1011119849
 H        -4.2571524589       -3.6076805952      -10.9229113977
 H        -4.9375320870       -2.2909534678      -11.9570980985
 H        -6.8623216802       -3.1266993631      -10.9249068881
 H        -6.4499835617       -1.6013822795      -10.3371132346
 H        -8.3974322600       -5.1513147588       -7.5853949347
 H        -9.1144599936       -4.1384149768       -6.2249361295
 H        -6.9601797597       -6.2942641219       -5.7276103205
 H        -8.6600140230       -6.7339144581       -5.9979180065
 H        -6.8559931057       -8.9594346081       -2.1485616711
 H        -5.9427171316       -7.8265087882       -1.1840432280
 H        -4.6618401178       -9.6295837020       -2.5911503840
 H        -3.9229937520       -7.9940485125       -2.7580765251
 H        -4.1612592824       -6.6306916802       -6.7182077611
 H        -3.2021283176       -7.6170392356       -7.5445628730
 H        -2.1903483874       -5.2581998614       -7.7059742664
 H        -1.2017479168       -5.8478624313       -6.5259034601
 H        -3.0057183423       -0.8472247131       -7.1354358497
 H        -1.4902195275       -0.7109831242       -6.3760736514
 H        -4.1384641233        0.3623083764       -5.6475003911
 H        -2.7665287442        1.1611590474       -5.9734865212
 H        -2.9037984190        0.9918759853       -0.2817785909
 H        -2.4210839766       -0.2996086387       -1.3577508698
 H        -4.5751142895       -0.2206291041        0.6485036195
 H        -3.2271784617       -1.3351167427        0.5118229337
 H        -7.0781653406        0.2110151108       -0.9745758954
 H        -8.4509075028       -0.4817546512       -0.2918507694
 H        -8.4963721977       -0.0175384505       -3.2720009237
 H        -9.0566359240        1.0725970393       -1.8363986200
 H       -12.4131677143        1.8480829555       -2.1821686753
 H       -13.5335079497        1.1377404123       -3.4390699820
 H       -12.5137320252        2.6182787598       -3.7135768076
 H        -9.8476868279       -1.1133866610       -4.7172308173
 H       -11.2678449183       -1.7614284247       -5.0851634569
 H       -10.4005285448       -2.6768058006       -3.9215099101
 H       -13.2386569424       -0.7320902978       -2.2988881646
 H       -12.3126322112       -2.2503201109       -2.1255670324
 H       -13.0198591069       -1.9302773368       -3.6660017718
 H        -7.2929405278       -4.2601740945       -0.0091208004
 H        -5.6381247428       -4.2906441354        0.4648845998
 H        -6.1353933087       -4.3002764281       -1.2959562294
 H        -7.4895875836       -2.3257433523        1.3613116298
 H        -6.6485970564       -0.7192595917        1.1240167048
 H        -5.8733611531       -2.0597830685        1.8320968760
 H        -1.1567149126        1.5062761484       -2.3163405642
 H        -2.0232285122        2.8199199844       -1.6718686989
 H        -1.4499005449        3.1664695113       -3.1433209931
 H        -4.3147052229        3.5336265850       -3.5048600782
 H        -4.8341520522        2.0009287482       -4.3039111199
 H        -3.5128605672        2.7661050917       -4.9698139994
 H        -0.9434318904       -4.2488321687       -3.6544626940
 H        -2.0787544360       -3.1237286217       -3.0914213390
 H        -0.5580238597       -2.4539792713       -3.8781005696
 H        -0.1814885933       -4.1019861160       -6.4160321481
 H        -0.0316701986       -2.5687672939       -5.9031962987
 H        -1.1536387043       -2.8437993866       -7.2108282208
 H        -2.4779569849       -9.9686353297       -3.8085163298
 H        -2.1545430486      -10.7664785728       -5.2480841643
 H        -3.5786319614      -11.2643129210       -4.4777940088
 H        -4.9087092091       -8.8755294594       -7.1622721036
 H        -4.7068387198      -10.6416144473       -6.8395100546
 H        -3.4407437452       -9.6558259123       -7.6985930477
 H        -8.5711002125       -6.5565375632       -0.7427851216
 H        -9.9658618485       -5.9088976897       -1.8547041720
 H        -8.5779393690       -4.9371194941       -1.5117014267
 H       -10.0520800061       -7.8884791962       -3.2037457437
 H        -8.7564432807       -8.6294654493       -2.4798419465
 H        -8.6627970110       -8.4082680631       -4.1727354383
 H        -7.6314921935       -0.7607001726       -7.2936203569
 H        -6.3190013109       -0.8741657135       -8.3535627519
 H        -6.0042406657       -1.5661937559       -6.6737951414
 H        -8.5141084432       -3.3926841265       -9.5736036730
 H        -8.6596476126       -1.8342599270       -9.1249762905
 H        -9.3703293166       -2.9947941629       -8.0448122506
 H        -1.9306612972       -3.6749352594      -10.6797874050
 H        -0.7437686945       -2.7346438829      -11.7400692474
 H        -2.2112130420       -3.3974239371      -12.4340003541
 H        -1.7101964097        0.1571322937       -9.6908814925
 H        -0.3751075842       -0.3319457697      -10.7308394881
 H        -0.9349991302       -1.2189021405       -9.4178644854
 H        -2.8941606864        2.6149498396      -17.6047038404
 H        -4.3097335521        2.3665809123      -16.8079005892
 H        -4.1621898449        1.6562813020      -18.2526743390
 H        -3.9040854837       -1.1654712952      -15.5442923527
 H        -4.9344103222       -0.3979542128      -16.8311842019
 H        -4.5334894240        0.3586851978      -15.1179981247
 H         2.0663468028       -2.9416358248      -22.1985188801
 H         1.2241029373       -1.5131532420      -22.7851362398
 H         0.3815585280       -2.7849259826      -21.8377378446
 H         2.8168518362       -3.3683333648      -20.1336897944
 H         1.1541525558       -3.2842573943      -19.4703070988
 H         2.4845847379       -2.3692840160      -18.7043077698
 H         6.4056808316        2.6604205210      -21.8721088896
 H         7.4050304132        2.5498122501      -20.1787624120
 H         7.1339563630        4.0480034378      -20.9429282738
 H         5.9013030026        5.0836697738      -19.0902583907
 H         5.9218648654        3.6031713873      -18.1474301410
 H         4.2817374383        4.3334510841      -18.4892860818
 H        -0.3975375940        4.3634653283      -25.3692875724
 H        -1.5658502944        4.8890776703      -24.2353617975
 H        -0.4120233496        3.6275678045      -23.6730804476
 H         2.0334910807        6.8530172437      -24.6691766823
 H         0.5110963682        7.1301633138      -25.3756795194
 H         1.2819644822        5.5974272688      -25.4858958188
 Na       -5.5516622266       -3.7550397467       -3.4658645923
 Na        2.3872838238        1.9952925268      -21.5450309128
