232

 C        -1.4212974173        7.6917099286      -23.3888515232
 C        -0.5690346886        6.5740794700      -22.7194204530
 O        -0.7490481617        6.2360677278      -21.5593807344
 C         0.2874132630        5.6218698222      -23.6444995784
 C         1.3621909431        4.8200686898      -22.7263816033
 O         1.1511134031        3.6273015960      -22.3649712488
 C         2.5067096896        5.5417023090      -22.1501863301
 C         3.2219726651        5.0165460839      -20.8865886554
 C         4.2948127570        3.8688194534      -21.2338356142
 O         4.2413739198        3.3970363961      -22.3482250498
 C         5.3478344766        3.3880231084      -20.2032295608
 C         4.6284079314        1.8985038036      -19.7936160489
 O         3.5783800570        1.9269691862      -19.1865664708
 C         5.1187945474        0.5974771849      -20.2822192660
 C         4.1914257869       -0.5940634213      -20.1656846803
 C         3.0007160915       -0.6499055877      -21.2027251295
 O         3.0203220341       -0.0047613667      -22.2328352604
 C         1.8222553017       -1.6229515697      -20.8266125260
 C         0.6797000466       -0.6247326167      -20.1090145059
 O         0.5991881071        0.5528856379      -20.4052355015
 C        -0.3822883081       -1.1577365543      -19.1786465755
 C        -1.0363411485        0.1009549136      -18.4771866031
 C        -2.3006132095       -0.3357999991      -17.8169243993
 O        -2.7926041960       -1.4246846128      -17.9883808951
 C        -2.9869472057        0.6284376426      -16.5986280793
 C        -2.0159991933        0.8968656383      -15.3914500601
 O        -0.8610727145        1.1181861531      -15.6943373413
 C        -2.5225492166        1.2575337162      -13.9896409746
 C        -1.8633707544        0.4712525536      -12.8696321746
 C        -2.6695730766       -0.8066039277      -12.5476879004
 O        -3.5156710937       -1.2956308333      -13.2699474822
 C        -2.2448592583       -1.5574971869      -11.1906951964
 C        -3.7540058504       -1.7846675052      -10.4145933173
 O        -3.8967461804       -1.4182990777       -9.2462965892
 C        -4.7371587930       -2.6876182471      -11.1615091076
 C        -6.0749805606       -2.5762160306      -10.3406062479
 C        -6.0303455083       -3.2552664243       -8.9795523677
 O        -5.3145930651       -4.1677005246       -8.7458875354
 C        -7.0734586924       -2.7200728957       -7.8201141468
 C        -7.1734375215       -3.7576720897       -6.6911400491
 O        -6.3272023705       -3.6437915943       -5.7993957978
 C        -8.2655819479       -4.7045647756       -6.6247225519
 C        -7.8808259171       -5.7650430768       -5.5746446952
 C        -8.4782339480       -5.4723859442       -4.1826603719
 O        -9.2118623772       -4.5548873824       -3.8929922745
 C        -8.1316501682       -6.5803665052       -3.0816960872
 C        -6.5803028619       -6.8151859282       -2.9572849433
 O        -5.8378403669       -5.8270606321       -3.0680958545
 C        -5.9915445251       -8.1787770198       -2.4387838069
 C        -4.7663902029       -8.7373534331       -3.2160169183
 C        -4.9134397950       -8.5871912205       -4.7014796810
 O        -5.8875316038       -8.0735000509       -5.2537253443
 C        -3.7531479393       -9.1180873504       -5.4967397937
 C        -2.8045575660       -7.9008956436       -5.4955037489
 O        -1.9001556836       -7.6572361531       -4.7218526452
 C        -2.9106120920       -6.9236825713       -6.7827477582
 C        -2.1670100769       -5.6707596589       -6.5572848902
 C        -2.6816273338       -4.6070033945       -5.5402551031
 O        -3.6169184723       -4.8340137166       -4.8596051052
 C        -1.8850054539       -3.3074463793       -5.3481510890
 C        -2.8755341990       -2.0039905308       -5.5475637478
 O        -3.8974982008       -2.1623290609       -4.8758333171
 C        -2.7480581635       -0.7767795286       -6.3523534018
 C        -3.2830297256        0.4140053763       -5.5528972445
 C        -2.7422157739        0.4505064191       -4.1649050699
 O        -1.8305239657       -0.3165302678       -3.8407408933
 C        -3.2267552948        1.5575256358       -3.1331802577
 C        -4.0396261706        0.8448250588       -1.9744301975
 O        -5.2369388314        0.9177145309       -1.8761212640
 C        -3.1731685338        0.1677981752       -0.8850562434
 C        -4.1244688080       -0.8094980713       -0.0804363630
 C        -4.7743324909       -1.8635081375       -0.9447625490
 O        -4.3394962104       -2.3174469323       -1.9539612060
 C        -6.1439847872       -2.4662918719       -0.3077009098
 C        -7.2145630712       -1.9106946248       -1.4207867776
 O        -7.3509891388       -2.3802726603       -2.5398771978
 C        -7.9702391588       -0.6183967288       -1.0878341165
 C        -8.9410023854       -0.1785931803       -2.1658236390
 C       -10.2785986984       -0.7980301284       -1.8855692828
 O       -10.6971972468       -1.0588512015       -0.8072114910
 C       -11.1941488970       -0.8351768715       -3.1546390663
 C       -11.3715627684        0.5800576022       -3.6238546741
 O       -10.5797219539        1.0416565086       -4.4242843933
 C       -12.4382688938        1.5055289334       -2.9313920793
 C       -10.5286970433       -1.5828149271       -4.2163710268
 C       -12.5599230283       -1.5160508379       -2.7821726638
 C        -6.0008555406       -4.0050458605       -0.2688111080
 C        -6.5938613122       -1.8473645628        1.0704414323
 C        -2.0381303103        2.3464410199       -2.4799027312
 C        -4.1365248965        2.7175523171       -3.6994096539
 C        -1.4668230863       -3.4072458064       -3.8781449823
 C        -0.7358219441       -3.2633056556       -6.3184270492
 C        -2.9106347505      -10.2862766934       -4.8308178108
 C        -4.1517171465       -9.5052576754       -6.9416538847
 C        -8.6807749515       -5.9807953936       -1.7636916401
 C        -8.9452236825       -7.8628818414       -3.3773234273
 C        -6.4570162173       -1.3577521732       -7.1837363905
 C        -8.4746138300       -2.4666197896       -8.5071667738
 C        -1.8118868325       -3.0116608030      -11.4896603910
 C        -1.2144851023       -0.9048024258      -10.2747128891
 C        -3.4108995342        1.8758706659      -17.2521036106
 C        -4.3382047628       -0.1376047533      -16.2362843280
 C         1.2058051093       -2.1934058959      -22.0575422033
 C         2.2161214362       -2.6155067294      -19.7094750170
 C         6.7860237640        3.1744263885      -20.7920582516
 C         5.5641161826        4.3279895617      -19.0171097331
 C        -0.6828304394        4.5916574255      -24.2376252673
 C         1.0331166958        6.3052421805      -24.7174753797
 H        -0.7682956831        8.4985050796      -23.7549931690
 H        -2.1452786193        7.9743429797      -22.5651535696
 H        -2.0255159109        7.2804361049      -24.2577387631
 H         2.2603741823        6.5849663539      -21.7555058783
 H         3.2487835540        5.7420592022      -22.8612230660
 H         2.5888098448        4.4400393535      -20.1369365547
 H         3.8195894367        5.8464975435      -20.4084663317
 H         6.1641703059        0.4017935828      -19.8791008709
 H         5.4142371591        0.7170232199      -21.2250196286
 H         3.7417146729       -0.6526429163      -19.1669715044
 H         4.7496454982       -1.4616204902      -20.3165755635
 H         0.0912444443       -1.9144862571      -18.4911770923
 H        -1.1064003891       -1.5746376978      -19.8314674325
 H        -1.2536496968        0.9061364698      -19.2272736947
 H        -0.3453349515        0.4845039795      -17.7666061040
 H        -3.5759705723        1.0356433492      -13.9087677655
 H        -2.5961167341        2.3412432971      -13.9371765166
 H        -1.5973101053        1.1624615103      -11.9945467177
 H        -0.8255727791        0.2553181837      -13.1096480099
 H        -4.4113537448       -3.6626471397      -11.0968141137
 H        -4.9039932187       -2.5411988118      -12.1987448560
 H        -6.8672497197       -3.0391611921      -10.9121677306
 H        -6.5001289665       -1.4649886173      -10.2164636310
 H        -8.4806745424       -5.1443260453       -7.5806620305
 H        -9.0910980859       -4.1395570703       -6.2996946269
 H        -6.8409029420       -6.0419563072       -5.6589236649
 H        -8.4402937617       -6.7075481017       -5.8671613307
 H        -6.8228658989       -8.8584516109       -2.4154276296
 H        -5.6241272783       -8.1391158890       -1.4385426014
 H        -4.6965440534       -9.7656983722       -2.9458634920
 H        -3.8440782009       -8.2298565519       -2.9579177706
 H        -3.9519242561       -6.8019852251       -7.1160429027
 H        -2.5282659387       -7.4796803762       -7.6688706665
 H        -1.9917214436       -5.1023234628       -7.4916685419
 H        -1.0820193118       -5.8831261982       -6.2461502335
 H        -3.2915067573       -0.8355823880       -7.3232703422
 H        -1.6513084320       -0.5199907871       -6.5279857735
 H        -4.3999851462        0.3560384837       -5.5133906195
 H        -3.2088813622        1.4359267818       -6.0832654697
 H        -2.8179294210        1.0733614875       -0.3924314365
 H        -2.2693902729       -0.3680364180       -1.2175497419
 H        -4.9460055061       -0.2309751672        0.4162990233
 H        -3.6275624651       -1.3851459729        0.6754747394
 H        -7.2167376132        0.1451216127       -0.7106316033
 H        -8.6340760314       -0.7476176169       -0.1674193637
 H        -8.5269281915       -0.5396556195       -3.1166478103
 H        -9.0964743674        0.8839935333       -2.1501833857
 H       -12.6382996221        1.2251508421       -1.8849995069
 H       -13.3877259485        1.5059047713       -3.4633069318
 H       -12.1396856602        2.5067741858       -2.7855670663
 H        -9.7590838125       -0.8253636583       -4.6660552500
 H       -11.1129942620       -1.9184537590       -5.0660055873
 H       -10.1741636099       -2.4955552366       -3.8204389576
 H       -13.0812082346       -0.9138666684       -2.0294689742
 H       -12.3986145847       -2.4723095970       -2.2219507962
 H       -13.0764977666       -1.7041982739       -3.7130219271
 H        -6.9875109203       -4.4810748997       -0.2446010107
 H        -5.5726643333       -4.2413403450        0.7345674749
 H        -5.6096891604       -4.4523056238       -1.1739654322
 H        -7.6795569192       -2.1996062900        1.2918410906
 H        -6.5824587589       -0.7829468359        1.0630712298
 H        -5.8758402061       -2.1855732977        1.8400672424
 H        -1.3273037975        1.5728469398       -2.2441051465
 H        -2.2193926055        2.8923508201       -1.5600316432
 H        -1.6544783025        3.1085408939       -3.0405874255
 H        -4.2933188341        3.2632312891       -2.7964262975
 H        -5.0687301698        2.3683195604       -3.9850052518
 H        -3.7379608787        3.1921726640       -4.5559462261
 H        -0.7833055357       -4.2092821800       -3.6777724843
 H        -2.3201221644       -3.5105748726       -3.2205970192
 H        -1.0630511964       -2.5020844895       -3.6142897980
 H         0.1171392144       -3.7616995158       -5.8235739937
 H        -0.3398743068       -2.2073009392       -6.3664100578
 H        -0.7859908811       -3.5929692453       -7.3648247122
 H        -2.4090538431      -10.1134725391       -3.8804144616
 H        -2.1541022608      -10.6965989313       -5.4756190773
 H        -3.5025748379      -11.1583242373       -4.7725058195
 H        -4.8005439203       -8.8246102504       -7.4552212510
 H        -4.5529216845      -10.4788595323       -6.9597779777
 H        -3.2685301368       -9.5774803498       -7.5034224624
 H        -8.4262153002       -6.7440960418       -1.0508372330
 H        -9.7124271795       -5.7568154783       -1.8893439677
 H        -8.2385342085       -5.0818006230       -1.4820639243
 H       -10.0104084185       -7.5160911647       -3.3535024350
 H        -8.9574831411       -8.6703628544       -2.6069305072
 H        -8.5380081319       -8.2323795731       -4.3919185400
 H        -6.7983440732       -1.3777761949       -6.0894677411
 H        -7.0660583466       -0.5168875776       -7.6571918157
 H        -5.3942717772       -1.4169127424       -7.3302982329
 H        -8.9898733852       -3.4261321663       -8.7767185684
 H        -8.3617943218       -1.9603900430       -9.5404348351
 H        -9.1876579890       -1.8219081995       -7.9487171764
 H        -1.9997545013       -3.4708692456      -10.4971060920
 H        -0.7276362949       -3.1191007280      -11.8127768312
 H        -2.5156614713       -3.4799307507      -12.1573531919
 H        -1.4204429418        0.0824973438       -9.8407959951
 H        -0.1632259569       -0.8042019872      -10.7028517964
 H        -1.0061113217       -1.4853604514       -9.3585723057
 H        -2.5382814959        2.6172748026      -17.5051069628
 H        -4.0563588088        2.5710756885      -16.7024289750
 H        -3.9211477635        1.8757814964      -18.1498495012
 H        -4.2011164776       -1.2474172967      -16.1578504324
 H        -5.0846734022        0.0619595565      -16.9719117923
 H        -4.6373843774        0.1030427491      -15.2453765645
 H         1.9759681778       -2.6138227692      -22.7199011559
 H         0.7054225860       -1.4779826840      -22.6030472618
 H         0.4547920158       -2.9654994163      -21.7368173420
 H         3.2332925749       -2.9803629934      -20.0031293699
 H         1.5619818256       -3.4589129996      -19.5992099939
 H         2.3352604757       -2.0386473105      -18.7665853104
 H         6.9289284324        2.3170528968      -21.3218400362
 H         7.4385889637        3.3212102266      -20.0449448337
 H         7.1349702573        3.9776773643      -21.4483484795
 H         5.8224179550        5.2483899900      -19.4729656398
 H         6.3793986533        4.0755092490      -18.3795451879
 H         4.6562221045        4.4099911675      -18.3632731655
 H        -0.0067517671        3.8307165564      -24.4792696848
 H        -1.1415757564        4.9162515213      -25.2193237977
 H        -1.4199989400        4.1198705485      -23.5366419898
 H         1.7364913380        7.0339948975      -24.2990638985
 H         0.3410956935        6.9621768051      -25.3418576805
 H         1.6570918045        5.7158347181      -25.4208791383
 Na       -5.3907282759       -3.5790170787       -3.7926262743
 Na        2.0202105966        1.9062769134      -21.6947113886
