232

 C        -1.2497228870        7.7064753646      -23.3719016078
 C        -0.6472109573        6.4972562962      -22.6751440093
 O        -0.8250740107        6.2411666893      -21.4992100707
 C         0.2996024354        5.5287671355      -23.5679278717
 C         1.2066285962        4.7601330778      -22.5892444491
 O         0.9711033853        3.6300418321      -22.3384281983
 C         2.4182992960        5.6318345181      -22.1015538341
 C         3.1442967398        4.9781694983      -20.8998037966
 C         4.2513703673        3.8578286983      -21.3084505357
 O         4.1823326124        3.3589198340      -22.4247330964
 C         5.3550535360        3.3301755897      -20.1380910527
 C         4.6370964164        1.9791399508      -19.8090835873
 O         3.5429786928        2.1177050324      -19.3065355293
 C         5.2188472944        0.5631556418      -20.3668852406
 C         4.2644767510       -0.5809516068      -20.1468040588
 C         3.0843916885       -0.5643210438      -21.1465069454
 O         3.0864119134        0.0591745610      -22.1274444437
 C         1.7910615141       -1.5085802830      -20.7778925392
 C         0.6688008476       -0.5543491982      -20.2128705744
 O         0.6504649738        0.6170321118      -20.5131057227
 C        -0.3717306768       -1.1852321870      -19.2519682457
 C        -0.9990263464       -0.0267571336      -18.3856866040
 C        -2.2532321381       -0.4314999424      -17.6664307843
 O        -2.7826368019       -1.5011974471      -17.9150984393
 C        -2.9749158171        0.6173768836      -16.7381883039
 C        -2.1326692748        0.8785914854      -15.4693774615
 O        -0.9034958103        0.9355461130      -15.5799573851
 C        -2.7066851302        1.2296601198      -14.0110899147
 C        -1.9171510029        0.4091073559      -12.9632433997
 C        -2.5091969384       -0.8559697414      -12.5569843262
 O        -3.3784552542       -1.3049424413      -13.3042166972
 C        -2.3386222688       -1.6886559917      -11.1873502040
 C        -3.7449204021       -1.9266247110      -10.5609464283
 O        -3.9145548208       -1.4526844692       -9.4666481031
 C        -4.8270650575       -2.7482056480      -11.1587975868
 C        -6.1715281429       -2.5457444976      -10.3338871148
 C        -6.1721387780       -3.2416106491       -8.9518489687
 O        -5.5195398945       -4.2378151302       -8.6869872492
 C        -7.0637579295       -2.6026657052       -7.8616927267
 C        -7.1626360208       -3.6384876320       -6.6961162522
 O        -6.3539546495       -3.6989611427       -5.8128926344
 C        -8.2715996316       -4.7462030782       -6.7473615914
 C        -7.9408507119       -5.7799166252       -5.6249991560
 C        -8.3796152742       -5.5028352178       -4.1923566073
 O        -9.1975094562       -4.6161183752       -3.9125898808
 C        -8.0377238485       -6.5849306621       -3.0892240310
 C        -6.5611378448       -6.7981125887       -2.9231608464
 O        -5.7678719128       -5.8632784219       -2.8916308684
 C        -6.0803231963       -8.1868731233       -2.4542819214
 C        -4.7567173004       -8.6801764541       -3.2097210884
 C        -4.9577146157       -8.6561676715       -4.7728996189
 O        -5.8775785071       -7.9967039746       -5.2297263838
 C        -3.7096524759       -9.1661119799       -5.6679364361
 C        -2.7608527883       -7.9113803533       -5.5567772479
 O        -2.0363264601       -7.7857689323       -4.6260445498
 C        -2.8109367183       -6.9040113299       -6.7277073012
 C        -2.1052822744       -5.6061584284       -6.7110315504
 C        -2.6916118664       -4.6097475649       -5.5882410395
 O        -3.6678079726       -4.9021533591       -4.9251906873
 C        -1.8285054914       -3.2035466062       -5.2632371422
 C        -2.9583955175       -1.9779758278       -5.4366505611
 O        -4.0276923078       -2.0220223107       -4.9535110891
 C        -2.6026709849       -0.7265423929       -6.2998093178
 C        -3.3876573858        0.3995810862       -5.5908187405
 C        -2.6990806167        0.6545922998       -4.2315676135
 O        -1.8397097945       -0.1709739347       -3.9578293977
 C        -3.2095160742        1.6124019073       -3.0578042106
 C        -3.9688512155        0.8485443663       -1.9005442929
 O        -5.1559112513        0.9977251339       -1.7038620822
 C        -3.1102311030       -0.0159629633       -0.9758282301
 C        -4.1161829840       -0.7792321260       -0.0917704766
 C        -4.7772155109       -1.8768810352       -0.8625508064
 O        -4.3567974351       -2.2584355650       -1.9346054339
 C        -6.1420017676       -2.4364839660       -0.3031814403
 C        -7.1854126343       -1.9275078767       -1.3718039786
 O        -7.1599647738       -2.5128052679       -2.4265276052
 C        -7.9688033169       -0.6720849608       -0.9958975674
 C        -8.8929698204       -0.2306629959       -2.1295886892
 C       -10.4062739165       -0.7276378228       -1.8886857619
 O       -10.8040274357       -1.0281653538       -0.7464453576
 C       -11.2476881380       -0.9106777613       -3.2026150590
 C       -11.3318032618        0.6446772030       -3.5859861604
 O       -10.6333485569        1.1745085270       -4.4246399475
 C       -12.3807730542        1.4485039950       -2.7931286344
 C       -10.5599337098       -1.8083002345       -4.2961771783
 C       -12.6410363365       -1.6334798307       -2.7587198647
 C        -5.9187347857       -3.9444115183       -0.3403233115
 C        -6.4787550617       -2.0500393414        1.1290089464
 C        -2.0329196931        2.3274572212       -2.4662034810
 C        -4.2755575751        2.6694454816       -3.5874890219
 C        -1.3167424386       -3.3321376282       -3.8218403640
 C        -0.6359753537       -2.9301669719       -6.2704522391
 C        -2.8942281210      -10.1836933190       -4.8762240751
 C        -4.1565157047       -9.5419238124       -7.0730874700
 C        -8.5150885391       -6.0705843798       -1.6452433298
 C        -8.9069791949       -7.8260740489       -3.4890129314
 C        -6.3439306911       -1.3048135816       -7.2776944858
 C        -8.4674294555       -2.2632225191       -8.4076720820
 C        -1.7176911543       -3.0578485677      -11.5966628071
 C        -1.2893295670       -1.0189046730      -10.2652309728
 C        -3.2239769178        2.0697284153      -17.2436522619
 C        -4.3139359402       -0.1352788187      -16.2317108166
 C         1.0696095841       -2.1997534390      -21.9696156423
 C         2.2259301118       -2.6810062633      -19.8406299491
 C         6.7372965500        3.1702075539      -20.8601392494
 C         5.5015593075        4.2661801290      -18.9776766745
 C        -0.7254998195        4.5571877018      -24.2878654932
 C         1.0597438272        6.4250849801      -24.6329357965
 H        -0.4487383028        8.3697132532      -23.8088563038
 H        -1.7839174031        8.1904743675      -22.5211668943
 H        -2.0285865527        7.4122213933      -24.1501125251
 H         2.2410422547        6.6100529270      -21.7271175602
 H         3.1472152854        5.7794346634      -22.9104802797
 H         2.4693888462        4.3433870216      -20.2889530459
 H         3.7116822665        5.6574402777      -20.3072707599
 H         6.1646894913        0.3135396545      -19.8931932343
 H         5.5672043950        0.6445987532      -21.4218043187
 H         3.7973631035       -0.5117746737      -19.0949470351
 H         4.7704093316       -1.5261787008      -20.1988696138
 H         0.2449017137       -1.8327865049      -18.5949097474
 H        -1.0391964644       -1.7486881460      -19.8353356117
 H        -1.3058972410        0.7639817384      -19.0484004262
 H        -0.1481510135        0.3158667190      -17.7697739621
 H        -3.7688053999        1.2090207394      -13.7997367847
 H        -2.5095895492        2.3392366762      -13.8713235106
 H        -1.9781416790        1.0219487051      -12.0625866993
 H        -0.8151299088        0.5511476526      -13.0753952087
 H        -4.7177675895       -3.8570162655      -11.2341310281
 H        -5.0256979225       -2.5148082212      -12.2237706265
 H        -6.9264164508       -2.9758330687      -10.9732278709
 H        -6.5113188576       -1.5387273499      -10.1639860763
 H        -8.1469273284       -5.3225607255       -7.6651382442
 H        -9.2870613228       -4.4047285336       -6.7328917202
 H        -6.8481598521       -5.9551157631       -5.6327713659
 H        -8.2947302838       -6.7248189525       -5.9181328842
 H        -6.9793994912       -8.8653893522       -2.6659251824
 H        -5.8508071850       -8.3194304715       -1.3622163784
 H        -4.5209605704       -9.6088119474       -2.7912465888
 H        -3.9540264837       -7.9521024849       -3.0625630710
 H        -3.9346764112       -6.8515601261       -6.7833608988
 H        -2.6069606956       -7.4618522968       -7.6485291066
 H        -2.0700137092       -5.0529078739       -7.6523409890
 H        -0.9665012832       -5.7769533510       -6.4848395422
 H        -3.0950072370       -0.9723278596       -7.2605309187
 H        -1.5461678754       -0.2932593640       -6.5160964568
 H        -4.4578475471        0.1921642990       -5.5758456663
 H        -3.3939390763        1.4074018471       -6.2034429128
 H        -2.5343610091        0.7411140581       -0.4275558347
 H        -2.3171360152       -0.6758490661       -1.4237036419
 H        -4.8226826295       -0.0872885193        0.3736245303
 H        -3.5025148617       -1.2824650415        0.6681488665
 H        -7.1658571970        0.0731962565       -0.7643244019
 H        -8.4733222105       -0.7178414692       -0.0936473720
 H        -8.4216434981       -0.5031999085       -3.0239821790
 H        -8.9850279828        0.8178327496       -2.0147188883
 H       -12.5595972329        0.9596302973       -1.8254891750
 H       -13.2597616327        1.5774515564       -3.3034588894
 H       -12.0619422330        2.3700290352       -2.4461394401
 H        -9.8450242612       -1.1835900424       -4.8413879608
 H       -11.2334413105       -2.2652325844       -5.0323273016
 H       -10.1527669263       -2.7870551388       -3.7945454658
 H       -12.9642799040       -1.4364572730       -1.7555601583
 H       -12.3399616137       -2.6676042051       -2.5866894172
 H       -13.3789974789       -1.6204819974       -3.6341142713
 H        -6.7482490416       -4.4916306783        0.0288590347
 H        -5.1850201093       -4.0124615954        0.4696270629
 H        -5.7985597505       -4.4291067906       -1.3151621600
 H        -7.4735078946       -2.5570836487        1.2861693132
 H        -6.6686808953       -0.9676310063        1.3005504282
 H        -5.6929706929       -2.4408638314        1.7993864214
 H        -1.3914003408        1.6509796637       -1.9890417826
 H        -2.2629140860        3.1660233691       -1.7706113847
 H        -1.4227045081        2.9021538637       -3.2553991786
 H        -4.6768005347        3.1619090741       -2.6574128899
 H        -5.1279644323        2.1334098634       -4.0387251445
 H        -3.8659243502        3.2814888966       -4.3792777206
 H        -0.5810242169       -4.1146525335       -3.7512479659
 H        -2.1393263122       -3.5411327685       -3.1777658876
 H        -0.9176984655       -2.3533448315       -3.3845432430
 H         0.2688707701       -3.4424733522       -5.8561162255
 H        -0.3376312907       -1.8569012484       -6.1793686684
 H        -0.6577311512       -3.1560976030       -7.3332774617
 H        -2.4774151198       -9.8189632284       -3.9723389976
 H        -2.1353845129      -10.6476705594       -5.4286176076
 H        -3.5257738563      -11.0480856921       -4.6715070575
 H        -4.6586132143       -8.7405802065       -7.5381253536
 H        -4.8447128964      -10.3688343144       -7.0259949105
 H        -3.3664167183       -9.8745168289       -7.7131247660
 H        -8.1122741518       -6.7544246946       -0.9348597380
 H        -9.5766829059       -5.9220392695       -1.6060896931
 H        -8.0725675016       -5.0815297204       -1.5087916218
 H        -9.8877991987       -7.4218968639       -3.9073104696
 H        -9.2897139089       -8.4187998201       -2.6026844056
 H        -8.3268986510       -8.4011063622       -4.1565105213
 H        -6.4091093348       -1.5452884738       -6.2353216061
 H        -6.9562600493       -0.4790992724       -7.4440557350
 H        -5.3232094514       -1.2722505696       -7.6514307094
 H        -9.2043242965       -3.0634216553       -8.4042126254
 H        -8.4006406473       -1.8320257197       -9.4088515022
 H        -8.8704891749       -1.4026663282       -7.8275130679
 H        -1.4975703405       -3.6531504653      -10.6620212682
 H        -0.7705128024       -2.7523104612      -12.0696475581
 H        -2.3421325705       -3.6069353104      -12.2157189357
 H        -1.3583870770        0.0551263589      -10.0925034930
 H        -0.1843282743       -1.1586094820      -10.5144053560
 H        -1.3162115927       -1.4366032338       -9.3324263250
 H        -2.3424736376        2.5643811535      -17.6368433724
 H        -3.5599278334        2.7801790265      -16.5188823235
 H        -3.8986940830        2.3005477443      -18.0659855163
 H        -4.1459272883       -1.1295967003      -15.9486411766
 H        -5.0155868275       -0.1659814048      -17.0319741366
 H        -4.7419468465        0.3017839287      -15.3815532021
 H         1.8685447939       -2.5918205236      -22.5446763245
 H         0.5023063528       -1.4922530286      -22.6714485249
 H         0.3680021497       -3.0036232719      -21.6275527252
 H         3.1061905020       -3.1317730151      -20.2850970301
 H         1.4502513531       -3.4741152220      -19.7885723712
 H         2.4555033838       -2.3028514475      -18.8495757519
 H         6.7856323812        2.4323594632      -21.5987675255
 H         7.5386215949        3.1777095410      -20.1641449879
 H         6.9324402589        4.0551818985      -21.3476362905
 H         5.7377133884        5.2606671880      -19.3416293163
 H         6.2942648300        3.9401236626      -18.3257489982
 H         4.6503066356        4.2388567285      -18.3157440838
 H        -0.4991621251        3.4775426369      -24.1169861157
 H        -0.7065729889        4.7827015743      -25.3411081758
 H        -1.7498455791        4.7070406022      -23.9461438013
 H         1.4752218434        7.3880004466      -24.1716358941
 H         0.3286941339        6.7930058797      -25.3927941236
 H         1.8506874801        6.0623827290      -25.1765190659
 Na       -5.3289937901       -3.4391645588       -3.8049305629
 Na        1.9564376441        1.8113436758      -21.7004626108
