232

 C        -1.1599756126        7.7563118740      -23.3031897697
 C        -0.7105106593        6.5246401517      -22.6180513692
 O        -0.8706263721        6.2180992490      -21.4631202696
 C         0.1607418679        5.5876891600      -23.5394654016
 C         1.1695946726        4.8111161770      -22.6452215003
 O         0.8237722504        3.7040513241      -22.2713787401
 C         2.3661218674        5.4904059265      -22.0244689718
 C         3.1623513725        4.8530409396      -20.8322584300
 C         4.2429486519        3.9080748101      -21.3382994163
 O         4.1666209195        3.3017740740      -22.4014398107
 C         5.2642995547        3.4164425141      -20.3200528199
 C         4.5873209843        2.0658380089      -19.9784135580
 O         3.4935940563        2.0307272420      -19.4229441218
 C         5.1837615603        0.7411381788      -20.3313530667
 C         4.2622768079       -0.5156366524      -20.0454948286
 C         3.0836414261       -0.6575607797      -21.0550662083
 O         3.1586679333        0.0351643268      -22.0986038277
 C         1.8653713357       -1.4762817631      -20.7711066674
 C         0.7618589606       -0.5528176615      -20.1436242952
 O         0.5591679579        0.5922818787      -20.5538044809
 C        -0.3400656569       -1.0829352382      -19.1823053483
 C        -0.9534648049        0.0120606175      -18.2984204067
 C        -2.3662354727       -0.4488442012      -17.6493484073
 O        -2.7663946234       -1.5850664939      -17.7890225845
 C        -3.0018672258        0.5691561347      -16.6669075572
 C        -2.0363117133        0.7886966786      -15.3987378090
 O        -0.8521883940        0.7419533847      -15.4883773516
 C        -2.7019311865        1.1725521665      -14.0628662179
 C        -1.9691571367        0.5489627266      -12.8292303922
 C        -2.6420208303       -0.9207570730      -12.5991961934
 O        -3.3220226538       -1.4568166688      -13.4563185928
 C        -2.2730969381       -1.8467232594      -11.3231541036
 C        -3.7037363954       -1.9952685436      -10.5327593134
 O        -3.8599760901       -1.3479020410       -9.5123045803
 C        -4.8774382486       -2.8218058430      -11.1520890823
 C        -6.2234102158       -2.5981201841      -10.4026620375
 C        -6.2457564509       -3.2076052969       -8.9463111024
 O        -5.6856004174       -4.2929914281       -8.7525527853
 C        -7.1497184360       -2.4582375595       -7.7976216907
 C        -7.1965161199       -3.6107356362       -6.6943109388
 O        -6.3453523192       -3.5999763564       -5.8378496996
 C        -8.1957199281       -4.8698015049       -6.7213376727
 C        -7.9812810733       -5.9699931889       -5.6519379711
 C        -8.4368758848       -5.5116139781       -4.2169968054
 O        -9.1630000788       -4.5674697707       -4.0005652270
 C        -8.0197222667       -6.5537858418       -3.1144597536
 C        -6.4952762216       -6.7917866096       -2.8997938418
 O        -5.6751573602       -5.9209091770       -2.8214241344
 C        -6.0923705122       -8.2605586519       -2.5498871863
 C        -4.7658953134       -8.5973287437       -3.2276649287
 C        -4.8845395895       -8.5278458324       -4.7364168795
 O        -5.8506886226       -8.0790590571       -5.3118599251
 C        -3.7268745323       -9.1873141598       -5.6068104296
 C        -2.7128951521       -7.8426945358       -5.6496614971
 O        -2.1049357062       -7.6964373452       -4.6042735700
 C        -2.8432537647       -6.7469269414       -6.7854509194
 C        -2.0191669153       -5.4715638681       -6.6306480429
 C        -2.5516670136       -4.5155467752       -5.6297307694
 O        -3.6047137325       -4.8863277001       -5.0657897087
 C        -1.8973821506       -3.0952401220       -5.2699905081
 C        -2.9413815011       -1.9986901653       -5.4670947881
 O        -4.0708202415       -2.0106480758       -4.9459612247
 C        -2.5968111011       -0.6553173433       -6.2491241769
 C        -3.4127158665        0.5532539796       -5.5995101403
 C        -2.7650657870        0.6878520473       -4.1572033036
 O        -1.7670855184        0.0854442249       -3.8685957469
 C        -3.2454858710        1.6754660180       -3.1019352511
 C        -3.8548449334        0.9162706914       -1.8771458777
 O        -5.0577678540        1.0497990169       -1.6347990296
 C        -3.0471496843       -0.1521620466       -0.9765052390
 C        -3.9356883751       -0.8157018174        0.0443828843
 C        -4.7624807521       -1.8237191201       -0.7558727034
 O        -4.3393551076       -2.1904522417       -1.8810282932
 C        -6.0609257858       -2.5275320009       -0.1892489662
 C        -7.1047715978       -2.0236120664       -1.3295605627
 O        -7.1481972633       -2.5282372324       -2.4484558328
 C        -7.9346328428       -0.8065238231       -0.9829491844
 C        -8.9499495145       -0.3176249012       -2.0788855332
 C       -10.3744201295       -0.8482431277       -1.9283988865
 O       -10.8482130295       -0.9525394017       -0.8045697673
 C       -11.2436145842       -0.9820369437       -3.1867846123
 C       -11.5070003566        0.5877835663       -3.5702494806
 O       -10.7292039761        1.1143677718       -4.3429101692
 C       -12.3600121817        1.4073618815       -2.6929827307
 C       -10.6198286754       -1.8180238288       -4.2827360971
 C       -12.5881323505       -1.5802608066       -2.8293823663
 C        -5.8727237744       -4.0547080380       -0.3770518046
 C        -6.3348180594       -2.1462713443        1.2599749017
 C        -1.9769186307        2.3643774997       -2.5473569954
 C        -4.3989782276        2.6579522648       -3.6401818400
 C        -1.3441919824       -3.1877899547       -3.8847585794
 C        -0.6398459936       -2.7780227535       -6.1222858641
 C        -3.0184756642      -10.3588691731       -4.9851892914
 C        -4.1781256407       -9.5735010990       -7.0068120513
 C        -8.4516578126       -6.1280425431       -1.6595248612
 C        -8.8281079305       -7.8462045950       -3.5565474558
 C        -6.2509725145       -1.2440881650       -7.4043137897
 C        -8.5042237606       -1.9985676704       -8.3134776573
 C        -1.6059495881       -3.2124891860      -11.7851944652
 C        -1.4562468672       -1.0677171567      -10.2976950377
 C        -3.0777566732        1.9752962066      -17.2724833567
 C        -4.4069894068        0.0020016836      -16.3001125921
 C         1.0773165023       -2.0877039165      -22.0531864321
 C         2.2406887980       -2.7098882304      -19.8701928674
 C         6.6636076488        3.1656193987      -21.0554775513
 C         5.3166826926        4.1737545839      -18.9969164483
 C        -0.7140082425        4.5539633664      -24.3446996860
 C         1.0486884633        6.4371332958      -24.5029509402
 H        -0.2989591226        8.2895780994      -23.7862267191
 H        -1.6541678185        8.4125950312      -22.5977644216
 H        -1.8569295630        7.3975972181      -24.0435853107
 H         2.0902290536        6.3803675306      -21.5674304317
 H         3.1411533997        5.7871105248      -22.7961329914
 H         2.5871465471        4.2677057185      -20.1858305304
 H         3.7543457593        5.5541844101      -20.2993978759
 H         6.1629288412        0.5727445933      -19.9226968152
 H         5.4948080938        0.7777940060      -21.5142048112
 H         3.8794557690       -0.6029504769      -19.0196755124
 H         4.9677684180       -1.4326161241      -20.2315591125
 H        -0.0320338620       -1.9247152726      -18.6372916075
 H        -1.0919727037       -1.3938785119      -19.9729298713
 H        -1.0437013672        0.8670778697      -18.9290737957
 H        -0.1919928175        0.1915172633      -17.4883439478
 H        -3.7808125565        0.8381350755      -14.0122395426
 H        -2.8451156675        2.2731839380      -14.0638028303
 H        -1.7311254407        1.2347093373      -12.0712934623
 H        -0.9189795456        0.3229736287      -13.1178458965
 H        -4.8127109293       -3.9692857983      -11.3662688518
 H        -5.0726311641       -2.4689674143      -12.2156621510
 H        -7.0701995931       -2.8720070804      -11.0507289213
 H        -6.3442248816       -1.6132446907      -10.2438794025
 H        -8.2591167939       -5.3813090178       -7.7019226989
 H        -9.2583834153       -4.5092300922       -6.5120333847
 H        -6.9147533360       -6.2364748887       -5.5133384667
 H        -8.3415463421       -6.9040251027       -6.0182042980
 H        -6.9321460529       -8.9844897287       -2.7130685648
 H        -5.8162383946       -8.3663769475       -1.4293498070
 H        -4.5043955955       -9.6344840113       -2.9070925119
 H        -4.0395990380       -7.8589691315       -2.8787104544
 H        -3.9528629918       -6.7666349504       -6.7991822337
 H        -2.5452369092       -7.2313732524       -7.7337344192
 H        -2.0993616136       -4.8010132599       -7.5211165218
 H        -0.9776733111       -5.6846612907       -6.6112762423
 H        -2.8596599127       -0.9408474364       -7.2906961125
 H        -1.6098784452       -0.3142079248       -6.2220291962
 H        -4.5148846160        0.4467666982       -5.6748824816
 H        -3.2775786104        1.4813780246       -6.0746383991
 H        -2.0716681699        0.2174423051       -0.5832223273
 H        -2.7087125154       -0.8854592354       -1.7534010307
 H        -4.5829082707       -0.0589438565        0.4745768303
 H        -3.2160077403       -1.2317948654        0.8007400953
 H        -7.2301628539       -0.0633147264       -0.7802944864
 H        -8.3755202575       -0.9468064596       -0.0421926881
 H        -8.4506320972       -0.5097395480       -3.0071676070
 H        -9.1096986471        0.7515731207       -1.9153173632
 H       -12.5087724369        1.0070816605       -1.7657827591
 H       -13.2943455918        1.6910991386       -3.1602364204
 H       -11.8555010415        2.3581390198       -2.4187484470
 H        -9.9419684583       -1.2473976973       -4.8536734221
 H       -11.4154195068       -2.2355012595       -4.9538392805
 H       -10.2417729013       -2.7609765031       -3.8733850405
 H       -12.7605565614       -1.5605600789       -1.7479490572
 H       -12.5236154305       -2.6642671840       -2.8815976495
 H       -13.3187019806       -1.2064400437       -3.5523666577
 H        -6.5700896223       -4.6405808183        0.2218272732
 H        -4.9246850001       -4.3036459514       -0.0322276129
 H        -6.2206748748       -4.3520436612       -1.3487772885
 H        -7.2103990315       -2.6321617270        1.4976072749
 H        -6.5801057571       -1.0510400672        1.4373883429
 H        -5.4680902836       -2.4886429888        1.8431787395
 H        -1.2923608822        1.6817992087       -1.9498988654
 H        -2.2450970101        3.2254387374       -1.9301590646
 H        -1.3273615067        2.8898536533       -3.3474880002
 H        -4.9077085021        3.1415298495       -2.7911693825
 H        -5.1870556965        2.0847579493       -4.2595666189
 H        -3.8670017244        3.3083527706       -4.3947729077
 H        -0.5748592797       -4.0017749004       -3.9828557869
 H        -2.0871793203       -3.3986939236       -3.0798514902
 H        -0.8498034598       -2.2507088106       -3.5114762675
 H         0.0085213053       -3.6553649453       -6.1918170611
 H        -0.0689996342       -1.9397750601       -5.7723743719
 H        -0.8957995127       -2.5393299474       -7.1650183892
 H        -2.4846246956      -10.0937002620       -4.0928598669
 H        -2.2997839406      -10.7663950752       -5.6955393332
 H        -3.6178187796      -11.2554828424       -4.7705535793
 H        -4.6385720977       -8.7679437113       -7.5732455910
 H        -4.9232383568      -10.3813131964       -6.9624604446
 H        -3.3464619422      -10.0074988691       -7.5911427597
 H        -7.9518307953       -6.7698661818       -0.9115145666
 H        -9.5505765656       -6.0872604770       -1.5350918045
 H        -8.0996058662       -5.0714192016       -1.6238002647
 H        -9.7293875155       -7.6548929385       -4.0886029995
 H        -9.1142033700       -8.3341565808       -2.6491465548
 H        -8.1417088998       -8.4415361369       -4.0996776708
 H        -5.9652231414       -1.3657013505       -6.4268439810
 H        -6.8268472494       -0.3956285952       -7.5749721294
 H        -5.4312230907       -1.2719447264       -8.0911933293
 H        -9.2261058202       -2.8185320960       -8.4238099020
 H        -8.3835480810       -1.3735364055       -9.1475727760
 H        -8.9223496497       -1.3081142779       -7.6081074093
 H        -1.2415071438       -3.8204922588      -10.9771543462
 H        -0.7632523045       -2.9109231456      -12.3634117787
 H        -2.3749181815       -3.7575758215      -12.4060511521
 H        -1.7654993970       -0.0354647286      -10.2518971763
 H        -0.4592252348       -1.0135056478      -10.2723182520
 H        -1.7005953040       -1.5374554518       -9.3078612199
 H        -2.2883803779        2.2754442821      -17.8240572302
 H        -3.2712432601        2.8435229980      -16.6974539649
 H        -3.8447205076        2.0571778747      -18.1012712088
 H        -4.3819872993       -0.8083404656      -15.6408639865
 H        -4.7392460198       -0.3941236696      -17.2557518454
 H        -5.1811703206        0.6494125853      -15.9019857390
 H         1.8122325884       -2.7085776607      -22.6166257355
 H         0.7966022375       -1.2495391708      -22.7771741563
 H         0.1931979110       -2.6277255477      -21.7683457637
 H         2.8341215298       -3.4227108846      -20.3923830996
 H         1.2617246465       -3.1941793973      -19.7159110926
 H         2.6572753197       -2.4494191592      -18.9155738775
 H         6.5646890048        2.6944577967      -22.0725583496
 H         7.3575126422        2.6251066886      -20.3363617002
 H         7.1826335226        4.1047049159      -21.1922761233
 H         5.6251471729        5.2422450172      -19.0424341416
 H         5.9893770381        3.5986215027      -18.3228791265
 H         4.4013183389        4.0565665138      -18.4541262389
 H        -0.9224752050        3.5748257875      -23.8338541281
 H        -0.3839070157        4.4538801481      -25.3421781105
 H        -1.6851117855        5.0305678159      -24.5149134165
 H         1.5543338860        7.2731037094      -24.0574560766
 H         0.6756504646        6.7255083623      -25.4347809264
 H         1.9088563474        5.8137121471      -24.8592166168
 Na       -5.3071929533       -3.4649258126       -3.6820224138
 Na        2.0190984412        1.8436695012      -21.6964305749
