232

 C       -22.2340602452       -6.9021882837       -2.5935734410
 C       -21.1480542083       -5.9172949182       -2.9741849686
 O       -20.1966224734       -5.7998017284       -2.2161231889
 C       -21.1501477026       -5.3354374091       -4.5552259971
 C       -20.2416752573       -3.9857046635       -4.7496065511
 O       -19.9609747825       -3.3597703897       -3.7535154669
 C       -19.9192078644       -3.4274833860       -6.1607140510
 C       -18.5841645574       -2.5827303009       -6.0113724253
 C       -17.5215289304       -3.0002552453       -4.9896837161
 O       -17.3624420755       -4.1788906645       -4.7323704266
 C       -16.5341900693       -2.0131043567       -4.2599975971
 C       -16.1860754181       -2.7325271972       -2.9002623769
 O       -16.9674395108       -2.6698379411       -1.9511398773
 C       -14.8743361074       -3.5142908210       -2.7236809458
 C       -14.7636203061       -4.0027507967       -1.3213749435
 C       -15.4579696960       -5.3833483766       -0.9374364869
 O       -16.4979214480       -5.7234466208       -1.4545752704
 C       -14.5745493941       -6.2988933846       -0.0501238237
 C       -13.3262225493       -6.6967938545       -0.8864966952
 O       -12.8882270786       -5.8876445027       -1.6527544614
 C       -12.7842185115       -8.1191596764       -0.8536532764
 C       -11.4347094746       -8.4091113004       -1.5474801719
 C       -11.2681827930       -9.8997313876       -1.9277146429
 O       -12.1728767419      -10.6829068221       -1.8869283626
 C        -9.8181525807      -10.3843978529       -2.5688059225
 C        -8.7260158394       -9.2417457459       -2.3865269265
 O        -8.6272180680       -8.4944339905       -1.4368462357
 C        -7.8322666767       -8.8061381242       -3.6699678558
 C        -6.9229347414       -7.5537530192       -3.4768652865
 C        -7.1094534109       -6.5013353847       -4.5425028627
 O        -8.0287088892       -6.5906692095       -5.3403819484
 C        -6.1408394148       -5.2596557737       -4.5058104862
 C        -4.9646436170       -5.4817852906       -5.5491663811
 O        -3.9522361731       -5.9880702672       -5.2415003769
 C        -5.3229461170       -5.1377938605       -7.0253884266
 C        -4.3099236565       -5.5351477711       -8.0947960561
 C        -4.6356461635       -4.7981129215       -9.5586108795
 O        -5.6000486996       -5.1662408601      -10.2258505200
 C        -3.7580601389       -3.5806587550       -9.9657457148
 C        -2.2462851988       -3.8941285219      -10.5242962580
 O        -1.3054580891       -3.6609312516       -9.7924115733
 C        -2.2258327421       -4.6670524022      -11.8547380935
 C        -0.9385098221       -5.3599634324      -12.2487626605
 C         0.2159188059       -4.3877692698      -12.6589986802
 O        -0.0516552556       -3.2189086477      -12.8059446280
 C         1.7320896471       -4.8408238535      -12.9401945333
 C         2.7155933533       -3.5915478324      -13.2924950747
 O         3.7473049280       -3.7205160036      -13.9439797395
 C         2.3386468083       -2.1137937068      -12.8996068756
 C         3.6279331456       -1.3924967625      -12.3070965331
 C         3.5682646827        0.0523089156      -11.7155129285
 O         2.4913817186        0.5667269709      -11.4721284559
 C         4.9990333965        0.9244209011      -11.8161961188
 C         4.8125012264        1.6856292256      -13.1622574879
 O         5.4300863980        1.3294152580      -14.1985558272
 C         3.8168202668        2.8776850274      -13.2304375960
 C         4.2885095626        4.2137148583      -12.6792512206
 C         5.4190455620        4.9335838369      -13.3334386755
 O         6.0674686247        4.5132225748      -14.2707232807
 C         5.9737375354        6.3234388322      -12.7600871465
 C         6.6639101523        6.9852837340      -14.0517997484
 O         6.1836881859        7.9450139708      -14.6498975870
 C         7.9958477344        6.3618726865      -14.6123579955
 C         8.2444707413        6.8376548873      -16.0666776541
 C         7.3125803567        6.1319262059      -17.0269317521
 O         7.0887058050        4.9228597875      -16.9394733952
 C         6.7712862879        6.9150415762      -18.2898584758
 C         8.0652962101        7.4178384386      -19.0597315130
 O         8.7880705451        8.3230522627      -18.6508620276
 C         8.3713941976        6.9982666240      -20.5261411863
 C         9.6142430173        6.2695299117      -20.8871136894
 C         9.8058630020        4.7385836579      -20.4150909113
 O         9.9656723127        4.5161326997      -19.2388888907
 C         9.7227719773        3.3639350151      -21.3635538442
 C         8.8693777437        2.4668007104      -20.2682561705
 O         7.6589281142        2.3819008489      -20.4660600130
 C         9.6454830850        1.5720914970      -19.1720313746
 C         8.7405158917        0.4627935560      -18.7856764312
 C         7.6029537561        1.0014392232      -17.8347581126
 O         7.7905858447        1.6834702150      -16.8359169628
 C         6.0108356228        0.6225569554      -18.1269150282
 C         5.1784094337        1.9156281414      -18.5081700287
 O         4.9281099243        2.7794070272      -17.7024021806
 C         4.5348751229        2.1195398170      -19.8790200653
 C         6.0289233241       -0.3951881468      -19.3155461893
 C         5.3707907097       -0.0635007235      -16.9978518087
 C         8.9145046648        3.5914149373      -22.6030097527
 C        11.3333185011        3.0439656669      -21.5462892926
 C         5.9861366638        5.7924174231      -19.2232275253
 C         5.9419686869        8.0725699184      -17.7742666668
 C         5.0911701553        7.3958155877      -12.1935440031
 C         7.0898768212        6.0783123990      -11.6654722130
 C         5.1517268270        1.9270268598      -10.7052120902
 C         6.1915164525       -0.0020756021      -11.6853316111
 C         2.2382322161       -5.5013145402      -11.6694358453
 C         1.9667879069       -5.8127384452      -14.2731068907
 C        -4.5091848409       -2.8623241233      -11.1913072947
 C        -3.6305196842       -2.6109068990       -8.7936725078
 C        -7.0139198178       -3.9650710732       -4.8099092466
 C        -5.3417278672       -5.0372335514       -3.1467970991
 C        -9.4745704467      -11.8013404503       -2.0067200727
 C       -10.0716617624      -10.6409165791       -4.1239299455
 C       -13.9881818512       -5.4483452660        1.2029277688
 C       -15.3562315797       -7.4997479694        0.6069704377
 C       -15.2338336438       -1.7420222313       -5.0635677829
 C       -17.2128383897       -0.6305289631       -3.9146384570
 C       -20.6274038304       -6.4014404290       -5.5447962670
 C       -22.6628815951       -4.9553951207       -4.9377346690
 H       -22.6969243231       -6.3965830239       -1.6919507875
 H       -21.7824548784       -7.8909347816       -2.2822824684
 H       -22.9052841242       -7.0902734997       -3.4236238725
 H       -20.7023485901       -2.7567166485       -6.4862964691
 H       -19.9171203569       -4.2520656309       -6.8771537054
 H       -18.9278818394       -1.5806080649       -5.8775056102
 H       -18.0171502076       -2.5070329250       -6.9453260738
 H       -14.0436032528       -2.8270288322       -2.8638664413
 H       -14.8129842102       -4.3002323621       -3.5451050467
 H       -15.3821527598       -3.2812245017       -0.7135331111
 H       -13.8077513864       -4.0815820389       -0.9916055874
 H       -13.5192456492       -8.7187920044       -1.4200976906
 H       -12.8042515854       -8.5155734853        0.1954766893
 H       -10.6465757274       -8.2684091509       -0.8163993577
 H       -11.2436474655       -7.7700724450       -2.5114416786
 H        -8.4909795175       -8.5282714526       -4.4482224416
 H        -7.3031756287       -9.6592321465       -4.0235208608
 H        -5.9250132244       -7.8754375156       -3.3288068169
 H        -7.2015234371       -7.0451008044       -2.5418764106
 H        -5.4800595588       -4.0437703512       -7.0489668066
 H        -6.3497451550       -5.5642849630       -7.2637884571
 H        -4.3605299339       -6.6520184591       -8.2454479434
 H        -3.2335743899       -5.2084710064       -7.8286446580
 H        -2.5536739889       -3.8685070011      -12.6655695106
 H        -3.1421358338       -5.2966431219      -11.8436239561
 H        -1.1131230700       -6.1566280765      -13.0761406884
 H        -0.4974762354       -6.0220715468      -11.4713426254
 H         1.4662455769       -2.0538711932      -12.2025856269
 H         1.9952106582       -1.5790698714      -13.8139611323
 H         4.4061859824       -1.3249240163      -13.0739380570
 H         4.0443109859       -1.8773284129      -11.4813852305
 H         3.0646947159        2.5846765928      -12.4789466104
 H         3.5221257601        3.0423174725      -14.3297235874
 H         4.4535042584        4.2219103859      -11.6285332835
 H         3.4908335080        4.8595987891      -12.9174484273
 H         8.1469539571        5.3068014442      -14.3582730809
 H         8.9076025610        6.7854870366      -14.0917388444
 H         9.3841788195        6.7005120858      -16.3846358934
 H         7.9575022119        7.9167916278      -16.0961956954
 H         8.3363411982        7.9855917779      -21.0172250786
 H         7.4805290541        6.5771041563      -21.0445163526
 H        10.4260931227        6.8914950184      -20.4898249956
 H         9.8418721739        6.2224441006      -21.9214545362
 H        10.1559431974        2.1593599276      -18.3691416267
 H        10.6482980715        1.1648551335      -19.4920736991
 H         9.2534316924       -0.3005847492      -18.2200519548
 H         8.3450273372       -0.0297940032      -19.7246563518
 H         3.7275845551        1.3758022370      -19.6388589592
 H         5.0900805567        1.8270850425      -20.7825186406
 H         4.1498487634        3.1052024831      -19.8174275816
 H         5.0526185942       -0.6049572869      -19.5928282381
 H         6.5247262770       -1.3051502686      -19.0632920285
 H         6.4152942922       -0.0995124610      -20.2786153188
 H         5.9391968527       -0.2706996192      -16.1217876106
 H         4.8981375437       -0.9514151905      -17.3824333083
 H         4.4876594378        0.4301110555      -16.5382105282
 H         8.5519673272        2.6607850512      -23.1043676044
 H         9.4592577229        4.1871442536      -23.4105189558
 H         7.9719051169        4.1981532271      -22.4341275670
 H        11.3705622645        1.9363346050      -21.7026974673
 H        11.7095364218        3.2356409616      -20.5165401485
 H        11.7632812015        3.5955018035      -22.4048326252
 H         5.3067563099        5.2070350002      -18.6165363628
 H         6.5869062119        5.1518477217      -19.8593959204
 H         5.3548293120        6.3616038295      -19.9395554436
 H         6.6310900832        8.6741774731      -17.2285691186
 H         5.1715279316        7.8062168721      -16.9851606068
 H         5.5005397110        8.6470916638      -18.5506694361
 H         5.6515802460        8.3654414830      -12.0533429805
 H         4.7563715288        7.1183599666      -11.2045141227
 H         4.2485537693        7.6668783303      -12.8418541515
 H         6.6454167802        5.7257692567      -10.7711852000
 H         7.5696471462        6.9637874705      -11.4425444489
 H         7.8664643371        5.3254963248      -11.8829398890
 H         5.9712653693        2.5877791974      -10.8550354597
 H         5.2330609857        1.3737728150       -9.7217346003
 H         4.3023479025        2.5063854283      -10.7015456337
 H         5.8079390278       -0.8288392284      -10.9521449159
 H         7.1057706054        0.5131729579      -11.3126349538
 H         6.5418639305       -0.5950574693      -12.5626502744
 H         2.4724497274       -4.7694222312      -10.9414434440
 H         3.2313389138       -5.9424197377      -11.9547584574
 H         1.6957378370       -6.2476538351      -11.1599176331
 H         2.9593278978       -6.2444498643      -14.2041365972
 H         1.9529985132       -5.1522354840      -15.1756559305
 H         1.1991474401       -6.6593411355      -14.3637262840
 H        -5.3424829328       -2.2927675719      -10.9018571086
 H        -4.8458839131       -3.6619182203      -11.8586789465
 H        -3.8248161005       -2.2792988800      -11.7289004889
 H        -3.6695004654       -1.5992770408       -9.2210314609
 H        -2.6999494394       -2.8359972829       -8.3818967046
 H        -4.4290651907       -2.7657989109       -8.1202239330
 H        -8.0381873220       -4.2825527086       -5.2263839714
 H        -6.5913083413       -3.1262883491       -5.3756030415
 H        -7.2817111351       -3.5171313097       -3.8089698888
 H        -5.7677796550       -4.7328713773       -2.1782440991
 H        -4.5423158090       -4.2856983222       -3.3433847075
 H        -4.7562950027       -5.9121644704       -3.0929298287
 H       -10.2792576293      -12.5506311093       -1.9729841056
 H        -9.2339514313      -11.6905452804       -0.9373755941
 H        -8.6326740000      -12.1339703581       -2.5610165280
 H       -10.8149304380      -11.3889186191       -4.2164348369
 H        -9.1443346786      -10.9554247000       -4.5715375406
 H       -10.5737874502       -9.7046245260       -4.5036688222
 H       -14.8300665558       -5.0815608127        1.8506147945
 H       -13.3495301911       -4.6408957548        0.8743229967
 H       -13.5342311865       -6.2334907914        1.8016572320
 H       -15.9981355891       -7.9697147248       -0.1506771432
 H       -15.9328937705       -7.0663207358        1.4157553151
 H       -14.7911957131       -8.3952957498        1.0119212818
 H       -14.5659013097       -2.6446353081       -5.1680449037
 H       -14.6402948497       -1.0661610054       -4.5622036895
 H       -15.4708550573       -1.3257520867       -6.0287776057
 H       -18.0525313925       -0.6786414204       -3.3481475172
 H       -17.5144004499       -0.1187050191       -4.8769619018
 H       -16.5710033621       -0.0045189471       -3.2586036449
 H       -19.6196314671       -6.2839129508       -5.4941934140
 H       -20.8984950714       -6.1050916295       -6.5691083438
 H       -20.9205960594       -7.4050815666       -5.2552490127
 H       -22.5001177090       -4.1772242859       -5.6843318657
 H       -23.1027850424       -4.4926109059       -4.0719186625
 H       -23.1986420144       -5.7590931941       -5.3771988034
 Na      -18.3045972906       -4.6690562851       -2.7162104562
 Na        6.1152200351        2.8723203511      -15.8918972091
