232

 C        -1.4946184239        8.1089545442      -23.0616779144
 C        -0.9339844118        6.8067695961      -22.5457365620
 O        -1.1554221795        6.4771374362      -21.3907846054
 C        -0.0393730896        5.9333642876      -23.4568375286
 C         0.9303826519        5.0628666051      -22.5708587800
 O         0.9107358292        3.8802653857      -22.7251362201
 C         2.0906287340        5.7465312035      -21.8083778425
 C         2.8780833385        4.8831591544      -20.7028173758
 C         3.9056630539        3.8826485984      -21.3420601345
 O         3.8230394931        3.6192402055      -22.5482403960
 C         4.9051037362        3.1257276897      -20.5089823998
 C         4.1875708086        1.7791065567      -20.0338031533
 O         3.0270103210        1.7035100141      -19.6889229596
 C         5.1346218922        0.5456538506      -19.9648206797
 C         4.4055396034       -0.7846715796      -20.0535920451
 C         3.2206048399       -0.7555684088      -21.0192066086
 O         3.2288675265        0.0104679145      -21.9284776448
 C         1.9813375177       -1.6054544860      -20.7855989410
 C         0.8758899686       -0.7236032194      -20.0527819845
 O         0.7099360609        0.4488496420      -20.3968288517
 C         0.0203411449       -1.1846891508      -18.8805434228
 C        -0.6779036241        0.0067304768      -18.1655517964
 C        -1.9833876246       -0.5258584304      -17.5013658186
 O        -2.3087344882       -1.6542465192      -17.7898454213
 C        -2.8278770126        0.4699737773      -16.6159365563
 C        -2.3177496343        0.2162527648      -15.1345240074
 O        -1.1763631874       -0.1475050467      -14.8599275876
 C        -3.1022822913        0.9342001757      -13.9731436932
 C        -2.7293999720        0.2731584106      -12.5849404421
 C        -2.8836687070       -1.2724150361      -12.7427636634
 O        -3.3660646554       -1.6812981699      -13.7684498351
 C        -2.4373525941       -2.3076267331      -11.5712955628
 C        -3.6835132850       -2.0420934990      -10.5709063993
 O        -3.6014055472       -1.1288051264       -9.7830578099
 C        -4.9776655649       -2.7476167451      -11.0417605233
 C        -6.2892970902       -2.3215097442      -10.4146272711
 C        -6.5348309655       -3.1640693977       -9.1585664754
 O        -6.2807210874       -4.3837680117       -9.1760359407
 C        -7.1182645174       -2.5114536801       -7.8973221820
 C        -7.2163267943       -3.4339306651       -6.6123970695
 O        -6.7260645497       -2.9876734178       -5.5892632261
 C        -7.9248090974       -4.7893321532       -6.7994476535
 C        -7.5093518100       -5.8156214605       -5.7090630298
 C        -8.1834671134       -5.5329058099       -4.3360378417
 O        -8.8115483216       -4.5168299029       -4.0690203547
 C        -8.0042565370       -6.7195064802       -3.3518059428
 C        -6.4740091686       -6.9575893602       -3.1541733331
 O        -5.6557636823       -6.0410581261       -3.3175056758
 C        -5.9774826077       -8.3213330701       -2.6603000381
 C        -4.5602868376       -8.7286430156       -3.2568923866
 C        -4.7043788538       -8.6630139216       -4.7943235786
 O        -5.8050524648       -8.5452357979       -5.3218449561
 C        -3.5577860838       -8.7328644559       -5.8445484483
 C        -2.6017822419       -7.5102808407       -5.8013420488
 O        -2.0299231168       -7.2713152001       -4.7806585531
 C        -2.6629628212       -6.4659455753       -6.9566038728
 C        -1.9822617882       -5.1440690845       -6.6021386025
 C        -2.6595840818       -4.3094676071       -5.6176187096
 O        -3.7104376875       -4.6596384017       -5.0730545122
 C        -1.8975942434       -2.8766294395       -5.2236185589
 C        -2.9188147845       -1.7562676804       -5.2569129132
 O        -4.0496689947       -1.8048102755       -4.7946274007
 C        -2.5052624074       -0.3961801075       -5.9524862536
 C        -3.2563656862        0.8102405444       -5.3390994547
 C        -2.6349921993        1.1449609229       -3.9340151441
 O        -1.4980697743        0.7917627824       -3.6471532396
 C        -3.3477249165        2.0124670148       -2.8290382272
 C        -3.8343500905        1.0061213270       -1.6642285335
 O        -4.9511628521        0.9262692341       -1.2403075926
 C        -2.7763205795       -0.0317245662       -1.1434925079
 C        -3.3079903259       -0.9096149268       -0.1056637720
 C        -4.1574223455       -1.9744103972       -0.8700564274
 O        -3.8386758639       -2.4113554858       -1.9498820209
 C        -5.5408059685       -2.4405085570       -0.1989676456
 C        -6.7338946508       -2.3608057117       -1.1470503902
 O        -6.6967518660       -3.1359019237       -2.1082018370
 C        -8.0002680402       -1.5382375011       -0.8028842844
 C        -8.8375996878       -1.1298132274       -2.0781956171
 C       -10.4134889053       -1.1468575011       -1.8346181275
 O       -10.7556701010       -1.3175465882       -0.6320025365
 C       -11.3664799545       -0.9258591307       -2.9679087271
 C       -11.6449388859        0.6308341871       -3.1974997612
 O       -11.2138115017        1.1423331783       -4.2252948993
 C       -12.5373686606        1.3877079438       -2.2970500994
 C       -10.8732225524       -1.4880249427       -4.3148656481
 C       -12.7058068654       -1.6747350488       -2.6858981211
 C        -5.2201002584       -3.8907697046        0.2157711456
 C        -5.9102860258       -1.7716704810        1.1834521918
 C        -2.2479224652        3.0044832679       -2.2214636350
 C        -4.4717900595        2.8420454634       -3.3680818331
 C        -1.4207624219       -3.0924775200       -3.7652284355
 C        -0.7034902064       -2.5195989844       -6.1421102381
 C        -2.8536091583      -10.0717518110       -5.4755789778
 C        -4.2393135819       -8.8453255388       -7.2307795503
 C        -8.6139170415       -6.4064778097       -1.9575113570
 C        -8.7675404682       -7.9598869974       -3.9730477499
 C        -6.1733087109       -1.3140548100       -7.5625157715
 C        -8.5669602478       -2.0309641403       -8.2836869064
 C        -2.3621865558       -3.6802041986      -12.3028970676
 C        -1.1896497164       -1.8941707604      -10.9101017805
 C        -2.6595415871        1.9975581056      -16.8346646435
 C        -4.3200291247        0.0089125639      -16.7420593419
 C         1.3510581557       -1.7925053300      -22.1520788299
 C         2.3343397693       -2.9362283683      -20.0675306634
 C         6.1998887910        2.9118583064      -21.4577704684
 C         5.3649532054        3.8146469032      -19.2413770088
 C        -0.9716088891        4.8671038907      -24.1152690949
 C         0.7485925747        6.6713887406      -24.4954815510
 H        -0.7279264712        8.7568439317      -22.7343868044
 H        -2.2378438229        8.4296108513      -22.3866819194
 H        -1.8198345569        8.1343675073      -24.0945384731
 H         1.7503744153        6.5691452220      -21.1048352998
 H         2.8587488888        6.2316244780      -22.3758428230
 H         2.2792253123        4.1744056609      -20.1022590458
 H         3.4237460047        5.4886344260      -20.0072149048
 H         5.6598656925        0.6624199611      -18.9789122919
 H         5.8330535611        0.5570051160      -20.7928401101
 H         3.9568134481       -1.0404258195      -19.0603086791
 H         5.0370332262       -1.5432256653      -20.3607997319
 H         0.7094256454       -1.6109743682      -18.0287130470
 H        -0.5795356811       -2.0761670872      -19.0646601868
 H        -1.2121417072        0.6680859354      -18.8772878178
 H         0.0239983166        0.5097699057      -17.5230195776
 H        -4.1525407700        0.9364249454      -14.0618475781
 H        -2.6299264260        1.9412420265      -14.0049521012
 H        -3.3506912052        0.5612992750      -11.7106655625
 H        -1.7130098180        0.5730119627      -12.3400568085
 H        -4.9819676117       -3.8468466409      -11.0443261934
 H        -5.0242114872       -2.5611650425      -12.1363222121
 H        -7.1505446106       -2.4539785088      -11.1678633015
 H        -6.2646446437       -1.2531517044      -10.0988101575
 H        -7.6710530771       -5.1822739540       -7.8380331716
 H        -9.0440707779       -4.6673001088       -6.8550611910
 H        -6.3842149867       -5.8079818921       -5.6542164141
 H        -7.5603376277       -6.9131187097       -5.9512768911
 H        -6.7734878585       -9.0162813338       -2.9173423765
 H        -5.9758931839       -8.3084350325       -1.6133903403
 H        -4.3771958590       -9.7794833626       -2.9451435910
 H        -3.7247299907       -8.0336732853       -2.8883810741
 H        -3.7375643774       -6.3932877902       -7.1004969185
 H        -2.0447977754       -6.9473243621       -7.7322442340
 H        -1.8564107273       -4.5161279264       -7.4074620260
 H        -0.9649183847       -5.3129497896       -6.1290047761
 H        -2.6852720776       -0.3632185949       -6.9733417279
 H        -1.4160606522       -0.2224670741       -5.8430288214
 H        -4.2370835886        0.4654941327       -5.3519363458
 H        -3.1481645641        1.6548722690       -6.0452386782
 H        -1.9254218483        0.5923141396       -0.9467492756
 H        -2.4170845767       -0.6006729006       -2.0311641857
 H        -3.9740037840       -0.3303608940        0.5700296067
 H        -2.4141339057       -1.3718035709        0.2958934268
 H        -7.8201538769       -0.6365149659       -0.1023064545
 H        -8.6404099499       -2.2115005194       -0.2581687978
 H        -8.5552532107       -1.8173174942       -2.9410908009
 H        -8.5012619122       -0.1085105107       -2.4149090397
 H       -12.1340013525        1.4973206880       -1.2465424329
 H       -13.5026787476        0.8920681627       -2.1425663209
 H       -12.7923603905        2.3608517939       -2.7866703583
 H       -10.2313091568       -0.7616816582       -4.7007894191
 H       -11.6794469958       -1.5396560142       -4.9719170668
 H       -10.1747988777       -2.3353965106       -4.2353756036
 H       -13.3801419101       -1.1858612415       -2.0046570871
 H       -12.4066437956       -2.6670268234       -2.3376578979
 H       -13.2951114651       -1.7946578601       -3.6558693725
 H        -6.1693229278       -4.3474546664        0.2227179784
 H        -4.7214497106       -4.0400533493        1.1850604936
 H        -4.5454357559       -4.3695426456       -0.5089079521
 H        -6.7452570204       -2.3173818485        1.6655187310
 H        -6.1013550798       -0.6985620297        1.1360361429
 H        -5.0635973868       -1.9186533826        1.8152759241
 H        -1.4086894348        2.5093666128       -1.8084332579
 H        -2.7441563644        3.5222582473       -1.3789297214
 H        -1.7435536395        3.6429628115       -2.9934451068
 H        -5.0585840965        3.2877037681       -2.5044270489
 H        -5.0892514369        2.1243581343       -3.9208696906
 H        -4.1547704924        3.7678874114       -3.8293601924
 H        -0.6304092424       -3.8675626816       -3.7569479531
 H        -2.2620014168       -3.3597900514       -3.1296011332
 H        -0.8957438589       -2.1489978906       -3.2948700202
 H        -0.2280062873       -3.4535743225       -6.4684323287
 H         0.0970389542       -1.9497310174       -5.6275588285
 H        -0.9842913689       -2.0117352230       -7.0351741665
 H        -2.8388717503      -10.2765014118       -4.3939173684
 H        -1.8407347847      -10.1549227839       -5.8397861350
 H        -3.5373346382      -10.8510542403       -5.8553158096
 H        -4.8352174207       -7.9467071773       -7.4255561312
 H        -5.0279836066       -9.6256153025       -7.1897941123
 H        -3.5914649900       -9.0662791079       -8.0929918897
 H        -8.8254586398       -7.3416860857       -1.4419877129
 H        -9.6400345380       -6.0073451349       -2.0733287972
 H        -7.8943546764       -5.7172000642       -1.4304819644
 H        -9.6493198468       -7.5894792911       -4.4871699237
 H        -9.0515534725       -8.6234126775       -3.1907407777
 H        -8.2183066673       -8.4279757148       -4.6693273236
 H        -5.4569085956       -1.1955028257       -8.3421843268
 H        -5.7375154987       -1.6172691508       -6.6825849977
 H        -6.6991968281       -0.4204672590       -7.1555056234
 H        -9.3217601765       -2.7681728914       -8.1334135782
 H        -8.5404329452       -1.7256990590       -9.3429585464
 H        -8.8887452085       -1.2123619894       -7.6298986633
 H        -2.3247871144       -4.4347707643      -11.4467759313
 H        -1.4017869585       -3.8511736415      -12.8394921672
 H        -3.1620335928       -3.8409583892      -12.9524215057
 H        -1.0601797864       -0.7478486296      -10.9095348301
 H        -0.3080022874       -2.2176292978      -11.4962059382
 H        -1.0772055000       -2.2362032412       -9.9145531388
 H        -1.6995150862        2.3772099701      -17.0951298338
 H        -3.0215053936        2.6754047036      -16.0436413971
 H        -3.1672561801        2.5505557821      -17.6610696793
 H        -4.4600842948       -1.0538554929      -16.6837145624
 H        -4.8769935151        0.3228814227      -17.6360030085
 H        -4.9281559521        0.5683226628      -16.0305793014
 H         1.9987578748       -2.3310288863      -22.7607580534
 H         1.0960590843       -0.8161922974      -22.6616691609
 H         0.4480543826       -2.3767903183      -21.9464247594
 H         2.7749099138       -3.5617877308      -20.8318734805
 H         1.4895013601       -3.5022297412      -19.6946481960
 H         3.0372670766       -2.8922673770      -19.2463220791
 H         6.3357467469        1.9730663132      -22.1267215285
 H         7.1088124572        2.7940038356      -20.7400592446
 H         6.1467420703        3.8398130498      -22.0005584210
 H         5.9497967294        4.7511929973      -19.4312825240
 H         6.1253612076        3.2014914017      -18.7335677269
 H         4.5868835134        4.2161686574      -18.5609964943
 H        -1.2793207047        5.0229265874      -25.1663527814
 H        -1.9351964683        4.7483551941      -23.6227443929
 H        -0.5567638821        3.8771437081      -24.0400863556
 H         1.3399011513        7.5803188011      -24.1884410145
 H         0.2125988271        6.9578022157      -25.4162223021
 H         1.4741263438        6.0177291074      -24.8030837501
 Na       -5.2848758973       -3.5599821816       -3.8215837078
 Na        1.7267622051        1.8476593892      -21.9704758678
