232

 C        -1.5877444427        8.1960078014      -23.0643257585
 C        -0.9177722139        6.9017300773      -22.4411743374
 O        -1.1688462812        6.5042939272      -21.3145955772
 C        -0.0352900682        5.8899076336      -23.4065992291
 C         0.9762885818        5.0530195066      -22.5807509044
 O         1.0775603270        3.8361366669      -22.7559905339
 C         1.9950680486        5.8054809334      -21.7413077507
 C         2.7022215610        4.8975632674      -20.7024585764
 C         3.7567706925        3.8364084263      -21.3893231281
 O         3.6617699150        3.5315033302      -22.6026589045
 C         4.8936101836        3.1386127731      -20.5206607645
 C         4.1998788988        1.8295809685      -20.0930015842
 O         3.0264618824        1.8269882053      -19.7645007892
 C         5.1409097358        0.5502932603      -19.9895725144
 C         4.4190086368       -0.8179491612      -19.9536218555
 C         3.2063805679       -0.7209234003      -21.0202093360
 O         3.3670337521        0.0955444401      -21.9165523232
 C         1.9205744788       -1.6515346469      -20.8307780525
 C         0.9805126632       -0.6346532038      -19.9397740607
 O         0.6232678926        0.4614671170      -20.5331977507
 C         0.2729885335       -1.1322051210      -18.7187683790
 C        -0.5767572904       -0.0068283981      -18.0864910462
 C        -2.0165452662       -0.5427550118      -17.5451492137
 O        -2.3794930643       -1.6653852508      -17.7215141208
 C        -2.8028144529        0.4121588138      -16.5586117000
 C        -2.3163007156        0.3257817011      -15.1272600587
 O        -1.3082989924       -0.2334998832      -14.8879506521
 C        -3.1556689579        0.9628167502      -13.9695624804
 C        -2.6790553419        0.2605596288      -12.6575634793
 C        -2.8821830545       -1.3475749545      -12.7707752256
 O        -3.4090307901       -1.8299183214      -13.7573170099
 C        -2.4187940664       -2.3545566176      -11.6089651964
 C        -3.7023309700       -2.0781911604      -10.7294151577
 O        -3.6692379820       -1.2922830506       -9.8020245756
 C        -4.9768390743       -2.8082385305      -11.1877531925
 C        -6.3443260692       -2.2459908751      -10.5458771975
 C        -6.5871039629       -3.0884279684       -9.2608767949
 O        -6.1206931881       -4.2241242995       -9.2434875492
 C        -7.2342678894       -2.4618553998       -7.9202993681
 C        -7.2627439558       -3.4492837226       -6.7204417549
 O        -6.8803859576       -3.1384469084       -5.6007448206
 C        -7.9355836547       -4.7250026907       -6.7889250616
 C        -7.4716462982       -5.6468415179       -5.6400957501
 C        -8.2339868311       -5.4594423283       -4.3319863771
 O        -8.9084787319       -4.5141957170       -4.0057315570
 C        -7.9429286987       -6.7182651155       -3.3401972646
 C        -6.3868381143       -6.9969742836       -3.1329527114
 O        -5.6014127491       -6.1125482332       -3.2288467305
 C        -5.9012307932       -8.4311634776       -2.6797467040
 C        -4.5563669945       -8.7322697568       -3.3434681991
 C        -4.7679174195       -8.6447888738       -4.8630537233
 O        -5.9218106680       -8.5425931739       -5.2377081199
 C        -3.6190878092       -8.7537910737       -5.9252298600
 C        -2.7674041064       -7.4076167657       -5.7482457601
 O        -2.0655088844       -7.2511066833       -4.7539920145
 C        -2.6719789890       -6.4103901323       -7.0086892095
 C        -1.8792329167       -5.1765066635       -6.6692361875
 C        -2.6183261306       -4.2423635250       -5.6747521170
 O        -3.6373273642       -4.6405985823       -5.1330242395
 C        -1.8446661350       -2.8793960662       -5.2714927979
 C        -2.8501275875       -1.6997620979       -5.2225960922
 O        -3.9538541526       -1.6939879691       -4.7303493112
 C        -2.5000859392       -0.2503911411       -5.9256252564
 C        -3.3193986257        0.8554669469       -5.1892669325
 C        -2.5654920910        1.3519269183       -3.9355549045
 O        -1.4555905086        0.9299619531       -3.7128954071
 C        -3.3822747783        2.0716535845       -2.7833385283
 C        -3.7691413398        1.0263402250       -1.7334360426
 O        -4.9435212761        0.9411777416       -1.3161502819
 C        -2.6615793785       -0.0602009293       -1.2182216279
 C        -3.2334420000       -0.9690180096       -0.1038595314
 C        -4.2587998545       -1.8548807726       -0.7581198061
 O        -4.0220981012       -2.3637507042       -1.8599253490
 C        -5.5517673587       -2.4941309150       -0.0430707401
 C        -6.7394550623       -2.4465930184       -1.1149654191
 O        -6.6690105437       -3.1422190030       -2.1076672749
 C        -7.9479359960       -1.6591031707       -0.8885451523
 C        -8.8281677708       -1.3139566693       -2.0781709165
 C       -10.3409079101       -1.2046607934       -1.7893430445
 O       -10.7398280547       -1.3118007602       -0.6598497336
 C       -11.3350427808       -0.9884416880       -3.0048043942
 C       -11.6948440598        0.6290912934       -3.1725351309
 O       -11.1983029502        1.2091765860       -4.1080981918
 C       -12.5333297937        1.3826047702       -2.1140166068
 C       -10.8890155936       -1.5829910784       -4.3762708571
 C       -12.6728873217       -1.7762505901       -2.5923937720
 C        -5.1459497821       -3.9827646779        0.2385114565
 C        -5.8896494396       -1.5977666411        1.2181181387
 C        -2.3067486825        2.9839489459       -2.1164386634
 C        -4.6231871857        2.8984020987       -3.2062954804
 C        -1.3793287600       -3.1500647468       -3.8396034271
 C        -0.5166808052       -2.5274644511       -6.0942528095
 C        -2.7199596569      -10.0340612494       -5.5390265475
 C        -4.1181191801       -8.9113668920       -7.4280401139
 C        -8.6519501378       -6.4268228575       -1.9780690063
 C        -8.6009839176       -7.9434091710       -3.9604821791
 C        -6.2562535576       -1.2501193781       -7.5387782925
 C        -8.6903769414       -1.9437455961       -8.2095673808
 C        -2.4656233565       -3.7243952084      -12.3146360001
 C        -1.0700718017       -2.0408174231      -10.9892644567
 C        -2.5559713568        1.8911689129      -16.8348241240
 C        -4.2669292700       -0.0546005265      -16.7424903127
 C         1.2966985034       -1.9520507622      -22.1931399540
 C         2.2448263385       -2.9860154785      -20.1426200135
 C         6.0844697148        2.7501293977      -21.4409765274
 C         5.3260991811        3.8960187967      -19.2946583707
 C        -1.1084530909        5.0285793740      -24.0978470601
 C         0.7754226505        6.6630480993      -24.4292612451
 H        -0.8938031202        9.0148319113      -23.0837276604
 H        -2.3816245481        8.5410483713      -22.4560768250
 H        -1.9404532793        7.8351180904      -23.9751547181
 H         1.7141555599        6.6202320929      -21.1787850379
 H         2.8466170096        6.2276772010      -22.3600794212
 H         2.0222846333        4.1977831658      -20.0986428269
 H         3.3092537942        5.4380230773      -19.9596888807
 H         5.6364444043        0.6912223118      -19.1240038117
 H         5.7921826494        0.4450310650      -20.9347764556
 H         4.1000845109       -1.0983661602      -19.0089786974
 H         5.1026481106       -1.5578758157      -20.3369212882
 H         0.9094800010       -1.6466858973      -17.9942713912
 H        -0.3510687017       -2.0144489128      -19.0376930375
 H        -0.8400180856        0.7797153020      -18.7899718808
 H        -0.0615853291        0.3972165049      -17.1767015688
 H        -4.1833614032        0.6750266581      -14.0436905789
 H        -2.9453661216        2.0147257262      -13.8841081124
 H        -3.1942212873        0.6661659480      -11.7918059293
 H        -1.5693683239        0.4869031600      -12.5536597506
 H        -5.0962143801       -3.8574092420      -11.1775866091
 H        -5.0100892920       -2.6272993383      -12.2081554012
 H        -7.1661344016       -2.4636137391      -11.3695003612
 H        -6.4265259190       -1.2360908263      -10.2523249088
 H        -7.6687759277       -5.2279194929       -7.7109279261
 H        -9.0180425663       -4.6771773362       -6.8515462579
 H        -6.3235440877       -5.6138063433       -5.4805534125
 H        -7.4914725033       -6.6905915582       -5.9531316747
 H        -6.6553535970       -9.1343867820       -2.7946706766
 H        -5.6857833404       -8.4124291702       -1.6466832879
 H        -4.3058977762       -9.7397757356       -3.0094600255
 H        -3.8103503030       -8.0118680322       -2.9628490695
 H        -3.7475328823       -6.2536477174       -7.1135456322
 H        -2.1174161941       -6.9540207447       -7.7411866625
 H        -1.7708337379       -4.4853888783       -7.5457898372
 H        -0.8553206625       -5.5168268957       -6.3209613720
 H        -2.6887660558       -0.2476909286       -7.0520617782
 H        -1.4795091015        0.0759097689       -5.8375881418
 H        -4.2848470217        0.2378612947       -4.9344444361
 H        -3.5559690508        1.6606499823       -5.9271055291
 H        -1.8919713322        0.6367694025       -0.8922820918
 H        -2.1951224053       -0.5213633321       -2.0872782492
 H        -3.6603261636       -0.4000953034        0.7001394423
 H        -2.4093301201       -1.6620048711        0.1366340613
 H        -7.6507190195       -0.6541577131       -0.4211672536
 H        -8.6247361369       -2.1712463374       -0.0983895258
 H        -8.6907301696       -2.0311554061       -2.9374450838
 H        -8.4174667204       -0.3403907806       -2.4881179396
 H       -12.0575144318        1.3031144615       -1.1478563732
 H       -13.6254456457        1.1761287727       -1.9017390288
 H       -12.5229182984        2.4739562859       -2.5080054266
 H       -10.0300176172       -1.0638947882       -4.7022250109
 H       -11.6585127875       -1.3915634594       -5.1779684493
 H       -10.4644955952       -2.5286776807       -4.2311115841
 H       -12.9556642933       -1.4488204571       -1.5980917377
 H       -12.4498856886       -2.8113951652       -2.7104453283
 H       -13.5549967223       -1.5478675542       -3.1852846304
 H        -6.0973724671       -4.5127415205        0.2946545011
 H        -4.5722450324       -4.2291978761        1.1023916332
 H        -4.4914394329       -4.2935851166       -0.5813315420
 H        -6.8095841731       -1.8386079523        1.5760451283
 H        -5.7912485397       -0.5235979623        0.8986499546
 H        -5.2271982223       -1.7334683834        2.0547754132
 H        -1.3818676701        2.4604118426       -1.8134936699
 H        -2.6624669733        3.5249739415       -1.3256180131
 H        -1.9436754348        3.5884207857       -2.9722919027
 H        -5.1386252125        3.2354461966       -2.3456853546
 H        -5.2573633277        2.2459740771       -3.7843242066
 H        -4.3805202254        3.8424792928       -3.6203577225
 H        -0.4984987539       -3.7726697831       -3.8592823844
 H        -2.1657965488       -3.5940713217       -3.1924176111
 H        -1.0323084611       -2.2180653762       -3.3955381291
 H         0.0712671851       -3.4637846195       -6.1984872690
 H         0.1649623584       -1.8398178668       -5.6220086917
 H        -0.8137653859       -2.1988652917       -7.0928205111
 H        -2.4832738418      -10.0557610959       -4.4661342657
 H        -1.7908227177      -10.1118824991       -6.1215297635
 H        -3.4332033087      -10.8982490561       -5.6933913450
 H        -4.5605687235       -7.9877541482       -7.8491247807
 H        -4.9088071946       -9.7001359295       -7.5433109873
 H        -3.2525484873       -9.2134226185       -8.0909623917
 H        -8.5459363280       -7.2946011534       -1.3038324805
 H        -9.7458761794       -6.2855350108       -2.0413520829
 H        -8.0260068440       -5.5519828988       -1.6357021724
 H        -9.5928159932       -7.6187603898       -4.2655436870
 H        -8.7040812931       -8.8027087269       -3.2959244841
 H        -8.0816038407       -8.2223020234       -4.9126420542
 H        -5.6910036541       -0.9177008262       -8.4303820314
 H        -5.5968862210       -1.6424040699       -6.6946919468
 H        -6.8250916212       -0.4892226239       -6.9265234039
 H        -9.4687331714       -2.7665110626       -8.2930983848
 H        -8.7256724168       -1.4745563019       -9.1705863686
 H        -9.0168985992       -1.3335432506       -7.3388335357
 H        -2.1995923940       -4.4643832943      -11.5486440441
 H        -1.6266838493       -3.7364926227      -13.0230706294
 H        -3.3995937131       -4.0060769776      -12.9458298824
 H        -0.8147176347       -0.9585355123      -10.7561628976
 H        -0.3485092052       -2.3516037465      -11.6687144863
 H        -0.8750225508       -2.6483911529      -10.0158147976
 H        -1.5801907258        2.2586844110      -16.8623263574
 H        -3.0563409529        2.6008589688      -16.1647954290
 H        -2.9016215874        2.4185019404      -17.7804239349
 H        -4.3334863983       -1.1376545892      -16.6822936469
 H        -4.5770339884        0.1124882607      -17.8172062669
 H        -5.1370601723        0.4639741553      -16.2482980553
 H         1.9581777326       -2.6206128373      -22.7591522583
 H         1.1601092523       -1.0064875027      -22.7350543471
 H         0.3860119350       -2.4101392468      -22.0405087593
 H         2.7496918654       -3.6349136843      -20.8293939924
 H         1.3695395575       -3.5505470252      -19.7543274908
 H         2.9079292744       -2.8957235913      -19.2975638954
 H         5.8924068223        2.0130920870      -22.2065425175
 H         6.8121912486        2.2325649442      -20.7885749326
 H         6.3964090250        3.7233941162      -21.8566343462
 H         5.9911634104        4.7840786551      -19.5042903477
 H         6.0225200322        3.2910290970      -18.6591195506
 H         4.5464179544        4.3612030712      -18.7340333515
 H        -1.1447958180        5.1786294310      -25.2351171722
 H        -2.1504416846        5.0654956017      -23.8144724201
 H        -0.8261305246        3.9949371781      -24.0060825635
 H         1.4825479419        7.3944659362      -24.0094792483
 H         0.1370388100        7.2948964852      -25.0099753872
 H         1.4296700395        6.0308330391      -25.1767551138
 Na       -5.2404038506       -3.5794193351       -3.7093081765
 Na        1.7766692207        1.8446238475      -22.0200810713
