232

 C        -1.6098928242        8.1159803132      -23.0193130914
 C        -0.8692213117        6.9163639077      -22.3417813068
 O        -0.9391646586        6.6250445854      -21.1720185206
 C        -0.1025059545        6.0429074815      -23.3840748124
 C         0.8270413782        5.0007180348      -22.6173703567
 O         0.6721438834        3.8225079560      -22.8096409454
 C         1.8175573378        5.6672087304      -21.6499973744
 C         2.7146047143        4.8056973280      -20.6578826068
 C         3.6914621681        3.8205117848      -21.4664545048
 O         3.5845099983        3.4842047772      -22.6040594035
 C         4.8402928932        3.1350625762      -20.6839524652
 C         4.2251855088        1.7513621066      -20.1090248081
 O         3.0530601313        1.7045922684      -19.7241055117
 C         5.1203052084        0.5878510914      -19.8254023386
 C         4.0734208832       -0.6883317488      -19.7919330311
 C         3.1290221671       -0.7458476810      -20.9805966617
 O         3.3703811457       -0.1053963386      -22.0078558109
 C         1.8140440127       -1.6292692703      -20.7979681269
 C         0.8732027876       -0.6049847386      -20.1144466195
 O         0.4689482433        0.3883026338      -20.6087989087
 C         0.4909940946       -1.0268380767      -18.6244108733
 C        -0.4032109808       -0.0702880705      -17.8437976966
 C        -1.8256309461       -0.5995584811      -17.4947365809
 O        -2.1634269785       -1.6909469039      -17.8544680250
 C        -2.7536177082        0.3815221275      -16.6443806131
 C        -2.2592788563        0.2205961501      -15.1457928704
 O        -1.1807854723       -0.3463303528      -14.9283773843
 C        -3.0556287670        0.7589539275      -13.9867834873
 C        -2.5964836547       -0.0181393521      -12.6703251445
 C        -2.9426736227       -1.4742250731      -12.9649134123
 O        -3.5498294008       -1.8066198960      -13.9534638689
 C        -2.5608046986       -2.6085203384      -11.7875227328
 C        -3.8433514097       -2.3233658807      -10.8144384411
 O        -3.7065890132       -1.6904530127       -9.7843798623
 C        -5.2233576667       -2.6701697594      -11.4115081031
 C        -6.3640455637       -2.2491552695      -10.5058098075
 C        -6.5473990802       -2.9739691833       -9.1649048419
 O        -6.0541095225       -4.0710314822       -8.9831394295
 C        -7.3039023209       -2.2942809548       -7.9657838149
 C        -7.2439292592       -3.2981242548       -6.7507241128
 O        -6.7128450958       -2.9304118653       -5.7141305580
 C        -7.9051517982       -4.6312233399       -6.7906844074
 C        -7.4324697046       -5.6973350837       -5.7234065810
 C        -8.1732403288       -5.6810086620       -4.3296118956
 O        -8.9065985228       -4.7593756490       -4.0338595506
 C        -7.8173992021       -6.7585270692       -3.2562840381
 C        -6.3494375673       -6.9526034230       -3.0456144180
 O        -5.5312928200       -5.9861085355       -3.0405329222
 C        -5.7649086458       -8.3093454619       -2.6598116985
 C        -4.5809742406       -8.6677519066       -3.6252778338
 C        -4.8211373926       -8.6405359796       -5.1147836465
 O        -5.8990800338       -8.5015494489       -5.6669767647
 C        -3.5731973742       -8.7380481621       -6.0537854084
 C        -2.8200031749       -7.3670988600       -5.8274456868
 O        -2.2839308039       -7.1752703826       -4.7706291400
 C        -2.7529123686       -6.3398289686       -7.0324358901
 C        -1.8227246025       -5.1632786878       -6.7115669509
 C        -2.4302299784       -4.2180766633       -5.7702819538
 O        -3.5701472322       -4.4049973687       -5.4027983355
 C        -1.6402726208       -2.7539667605       -5.2544998034
 C        -2.8055135305       -1.6268999665       -5.1731322614
 O        -3.8525079279       -1.8654049670       -4.5861952050
 C        -2.5765436677       -0.2734935019       -5.8372906240
 C        -3.3657790554        0.9193581898       -5.1282512335
 C        -2.5452862121        1.5065143485       -3.9086728179
 O        -1.3347906111        1.3872283334       -3.8107866545
 C        -3.2837800803        2.1862492909       -2.5794613931
 C        -3.7373682962        0.9332924423       -1.6197390934
 O        -4.8960047038        0.7350015143       -1.4199609143
 C        -2.6056957303       -0.0287265649       -1.0908949515
 C        -3.3008827708       -0.9660578283       -0.1607352806
 C        -4.3240571494       -1.8796606148       -0.9094880427
 O        -4.1185683690       -2.2655493582       -2.0281757322
 C        -5.5587414816       -2.3780857586       -0.0451429404
 C        -6.7227623192       -2.4230983389       -0.9840761318
 O        -6.7519101784       -3.2616719880       -1.8990450228
 C        -7.9912667405       -1.5628525233       -0.8603736083
 C        -8.9168204259       -1.7327047935       -2.1968219636
 C       -10.3190832582       -1.3169877028       -1.8381680816
 O       -10.6078628045       -1.1671338315       -0.6249154970
 C       -11.3386306901       -1.1607997488       -2.9048494585
 C       -11.5617105429        0.4833106718       -2.9568376998
 O       -11.1199070145        1.1427760730       -3.8894727333
 C       -12.3181728361        1.0297680251       -1.7906200222
 C       -10.8926007894       -1.5571641161       -4.3217079869
 C       -12.6631302548       -1.7543090086       -2.5103747834
 C        -5.3469855916       -3.8564841500        0.4994630454
 C        -5.8836397101       -1.6218004220        1.2616573157
 C        -2.4053712666        3.2226023105       -1.8666123104
 C        -4.5840442372        2.8362734269       -3.0664442546
 C        -1.3815096811       -3.0406774053       -3.7825043870
 C        -0.3643759583       -2.5044417592       -6.1757309314
 C        -2.5344105452       -9.8040599702       -5.5193238966
 C        -4.1280790560       -9.0560021765       -7.4962575239
 C        -8.4800397308       -6.4179907985       -1.9063410268
 C        -8.6173297345       -7.9985286981       -3.8077666969
 C        -6.4828512740       -1.0155138073       -7.5037833218
 C        -8.7136779844       -1.8596170555       -8.3350655614
 C        -2.4941165067       -4.0525292179      -12.2392304202
 C        -1.3028748273       -2.0756285858      -11.0625162021
 C        -2.6176497990        1.8524566538      -17.2193902146
 C        -4.2286821520        0.1115510175      -16.7225767909
 C         1.2376251201       -1.8779691725      -22.2747751131
 C         2.1333945888       -2.9682838692      -20.0265403764
 C         6.0720638219        3.1056206817      -21.6704365051
 C         5.2763790241        4.0384605103      -19.4449848808
 C        -1.1512404684        5.2119113291      -24.1258656068
 C         0.7187677127        6.8632605218      -24.3690403756
 H        -0.8107723548        8.8402948526      -23.3239207144
 H        -2.2895637559        8.6081996585      -22.2700117602
 H        -2.1639752318        7.7231957265      -23.9393792664
 H         1.4199553679        6.4364559371      -20.8889640136
 H         2.4560002023        6.2460704439      -22.2599686271
 H         2.0809329905        4.2031472833      -20.0469340298
 H         3.3625143507        5.3205021537      -19.9557156547
 H         5.4647603061        0.4946201411      -18.6833402053
 H         5.8128298715        0.4315091302      -20.6071364595
 H         3.4559059298       -0.6741744546      -18.8016502814
 H         4.6766472283       -1.6318213421      -19.8037880699
 H         1.4312284751       -1.2339619369      -18.1035621246
 H         0.0443689163       -1.9818736897      -18.4919560962
 H        -0.5194518802        0.8992131784      -18.3998139184
 H        -0.0421871071        0.1611246620      -16.8593373810
 H        -4.1340848764        0.4989709594      -14.0849950275
 H        -2.7797024842        1.8250900510      -13.8010390268
 H        -3.1970030256        0.2795945072      -11.7627920349
 H        -1.5440223900        0.0991463676      -12.5252125143
 H        -5.3078200427       -3.7779995981      -11.5980064060
 H        -5.4246165039       -2.3001327563      -12.4720659521
 H        -7.2687448311       -2.2349708683      -10.9973812598
 H        -6.1567588945       -1.2109914977      -10.1549060086
 H        -8.0183842606       -5.1382674360       -7.7412578352
 H        -8.9373880773       -4.4777856040       -6.4802037385
 H        -6.4215557281       -5.6634483421       -5.4479009901
 H        -7.5082533825       -6.6636163209       -6.2571041753
 H        -6.5832442458       -9.1247877627       -2.6129317990
 H        -5.3332286965       -8.2548103271       -1.6051788394
 H        -4.1450975520       -9.5843369724       -3.2528347744
 H        -3.7892936805       -7.9319282043       -3.5590960342
 H        -3.7955931995       -6.0440797330       -7.0798897251
 H        -2.3250031323       -6.9332457060       -7.8681434050
 H        -1.5236409661       -4.7236972581       -7.6586477282
 H        -0.9238011363       -5.5552446399       -6.1793239443
 H        -2.8277119846       -0.5880694062       -6.8333719653
 H        -1.5071826197        0.1009746145       -5.9266522537
 H        -4.1622721383        0.4399903129       -4.6992625141
 H        -3.6767102200        1.6731619206       -5.8684704577
 H        -1.7629965296        0.5200510737       -0.6562408239
 H        -2.2352898419       -0.4028084816       -2.0450516036
 H        -3.8295194177       -0.3510791252        0.6056591222
 H        -2.5182526767       -1.5655138657        0.2838413605
 H        -7.7774753878       -0.5287958452       -0.7484286610
 H        -8.5655510509       -1.8257501864       -0.0284075009
 H        -8.8551051684       -2.6973475458       -2.6498139672
 H        -8.5787233000       -1.1204983527       -3.0032669831
 H       -12.2082506691        0.3719299452       -0.9196397871
 H       -13.3232659238        0.9003023087       -2.0240871212
 H       -12.2755435701        2.0549080749       -1.6200606138
 H        -9.8574518722       -1.2815648499       -4.6626147720
 H       -11.5418312492       -1.0350168753       -4.9716686355
 H       -10.8337153790       -2.6979303263       -4.4053763160
 H       -12.7239500730       -1.9348134289       -1.4695474123
 H       -12.9461958826       -2.5329136367       -3.2212631998
 H       -13.4817627679       -1.0254580439       -2.5622980138
 H        -5.9743324247       -3.9707858556        1.3587726698
 H        -4.2958127911       -3.9803066713        0.8817676468
 H        -5.3579340805       -4.6060220679       -0.2693384109
 H        -6.7509108366       -2.2561479167        1.6572691988
 H        -5.9808353043       -0.5706472204        1.1706919232
 H        -5.1102045900       -1.7358974510        2.0270916648
 H        -1.4152815855        2.7994857581       -1.8661040897
 H        -2.6975178047        3.4272268111       -0.7719261397
 H        -2.4546696000        4.1881364507       -2.4383960839
 H        -5.2086718862        3.4555811091       -2.3918991361
 H        -5.2018401310        2.1233746785       -3.5613296796
 H        -4.2274272869        3.5349215542       -3.8181549848
 H        -0.9133848284       -3.9893642881       -3.6332012711
 H        -2.3337244097       -3.1806514891       -3.4052435015
 H        -0.8220075518       -2.2633601255       -3.2173734961
 H         0.5152723585       -3.0164442626       -5.8152703172
 H        -0.0170461628       -1.4462745012       -6.0800831614
 H        -0.6454107455       -2.7266159457       -7.2002314820
 H        -1.8127188930       -9.3462757754       -4.8208159068
 H        -1.9559433311       -9.9981792417       -6.4240494231
 H        -2.9270612846      -10.7470054875       -5.1896728827
 H        -4.9480030948       -8.4405717069       -7.8464524852
 H        -4.3603120639      -10.1004691197       -7.5572650521
 H        -3.3412440054       -8.8966262526       -8.2023215371
 H        -8.1034442122       -7.0034416998       -1.0778773664
 H        -9.5240641694       -6.6327859537       -2.0507038339
 H        -8.2986643100       -5.3950913978       -1.7308615482
 H        -9.7517989733       -7.8044655160       -3.8346668154
 H        -8.4577733184       -8.9085063140       -3.1369951493
 H        -8.2506664162       -8.2039058841       -4.7757002570
 H        -6.7995175738       -0.2437931730       -8.2439798000
 H        -5.4420350494       -1.1045789424       -7.3993919480
 H        -6.8989017111       -0.8092685718       -6.5081951292
 H        -9.2041494224       -2.4568235750       -9.0941764480
 H        -8.7569873582       -0.8839565395       -8.9062047139
 H        -9.2628935840       -1.8339703582       -7.3958471074
 H        -2.3182490357       -4.7639060441      -11.3896704395
 H        -1.7096333658       -4.1081361810      -13.0152846309
 H        -3.3322793661       -4.3403729769      -12.7794641425
 H        -1.5398620962       -1.2893315654      -10.3563114297
 H        -0.4578484722       -1.7980918909      -11.7885469939
 H        -0.8994800522       -2.7829500211      -10.4515798443
 H        -1.8176554370        2.5263984598      -16.8958572701
 H        -3.3822634477        2.5636211514      -17.2449457551
 H        -2.4312937336        1.8557931296      -18.2469983246
 H        -4.4876882632       -0.8125166144      -16.1984465370
 H        -4.5620348096       -0.1383181895      -17.7080589177
 H        -4.8617448689        0.9058237961      -16.3877515195
 H         1.9207681981       -2.5329707645      -22.7576407563
 H         1.2015186354       -0.8777852475      -22.7461194753
 H         0.1895316115       -2.3105895340      -22.2793710771
 H         3.0623346593       -3.4901295685      -20.3350771062
 H         1.3183178709       -3.6686274065      -19.9894083749
 H         2.3578484069       -2.7648288417      -18.9586082900
 H         5.7465509183        2.7593703907      -22.6261488939
 H         6.8097353574        2.3787622186      -21.2891459620
 H         6.5003831207        4.0328021018      -21.6979322242
 H         5.4997712228        5.0371978338      -19.6887819826
 H         6.1908027750        3.7181076387      -19.0205550948
 H         4.5567584949        4.1405340851      -18.6042737050
 H        -1.2194100764        5.3768710202      -25.1776656268
 H        -2.1431859791        5.4497913243      -23.7181949889
 H        -1.0978866625        4.1093991777      -24.0634841688
 H         1.6224904946        7.3598874015      -23.9949179690
 H         0.1560910418        7.7707362358      -24.7185301487
 H         1.0134673209        6.2958035344      -25.1401195787
 Na       -5.0779414923       -3.7682817070       -3.6844084407
 Na        1.8920482715        1.7592644239      -22.0773059644
