232

 C        -1.7142058157        8.1740344019      -22.8582208720
 C        -0.8137246368        7.0136283953      -22.3628824626
 O        -0.7822529850        6.7157888066      -21.1555311609
 C        -0.1668334530        6.0296290638      -23.4033899110
 C         0.6845302875        4.9510188103      -22.5616313677
 O         0.5423189830        3.7419443619      -22.6737523636
 C         1.7657817660        5.5564435567      -21.6932265648
 C         2.6503408407        4.6720312728      -20.7437362482
 C         3.6576875014        3.7939061979      -21.4408465726
 O         3.4704749022        3.5244449006      -22.6713955805
 C         4.8444659519        3.1439472950      -20.6908398391
 C         4.3083334830        1.8390459813      -20.1030912761
 O         3.0999492083        1.8677058099      -19.8307734281
 C         5.0726996225        0.5557473895      -19.8488234760
 C         4.0373130782       -0.6974845516      -19.6439041697
 C         3.0974382308       -0.7892113577      -20.9334806604
 O         3.3386124622       -0.2694991930      -22.0366900856
 C         1.8109071869       -1.5590823408      -20.8076831749
 C         0.8114642643       -0.6529149504      -20.0115865762
 O         0.3669181424        0.3953360741      -20.5765100093
 C         0.4260180517       -0.9971746831      -18.5809008429
 C        -0.2938240733        0.0177320125      -17.8120157970
 C        -1.8123309853       -0.5455102974      -17.6259026510
 O        -2.0323500184       -1.6857549766      -17.9296049581
 C        -2.6888213899        0.3616173556      -16.7687685195
 C        -2.0840623101        0.3316921963      -15.2551392659
 O        -1.0951762101       -0.3075414019      -15.0562650951
 C        -2.9755325731        0.8481122538      -14.0495902459
 C        -2.6341209294       -0.1218891960      -12.7486217283
 C        -3.0505676178       -1.6277720403      -12.9754855056
 O        -3.5634054253       -2.0293714958      -13.9924333576
 C        -2.7487357290       -2.6364487875      -11.8209569688
 C        -3.9172250389       -2.4692644426      -10.8177819449
 O        -3.7292054377       -1.9060550131       -9.7739910382
 C        -5.3584365801       -2.6897589018      -11.2816167001
 C        -6.4405575842       -2.1396400131      -10.4188144224
 C        -6.4848268838       -2.9111715701       -9.0511311840
 O        -5.9982736544       -4.0553147321       -8.9219682318
 C        -7.3220162404       -2.2432999725       -7.8984627891
 C        -7.1402873608       -3.2310557426       -6.5574846657
 O        -6.4535454131       -2.8479648836       -5.6194570839
 C        -7.9676454919       -4.5372929708       -6.6270596646
 C        -7.4037128294       -5.6806918115       -5.7552245659
 C        -8.0926064279       -5.6000072102       -4.3725316539
 O        -8.9476444049       -4.7795826935       -4.1696757161
 C        -7.8593280775       -6.8040649056       -3.3173116498
 C        -6.3125388078       -6.9016860075       -3.0650345019
 O        -5.6152993805       -5.9079706799       -2.9975166906
 C        -5.6968504202       -8.3125759272       -2.7878333984
 C        -4.5126949982       -8.6929802633       -3.6858426155
 C        -4.7554138265       -8.6150480657       -5.1880115605
 O        -5.8539228711       -8.4826029396       -5.7127622646
 C        -3.4551957646       -8.7171120004       -6.1395539358
 C        -2.8623159041       -7.2947702134       -5.9705145257
 O        -2.3902267587       -7.0339984844       -4.8645532512
 C        -2.7161046477       -6.2868457874       -7.1042154701
 C        -1.7512569958       -5.1185642251       -6.7044198776
 C        -2.4976399965       -4.1603742648       -5.8374234451
 O        -3.6404679242       -4.3177859723       -5.4464958062
 C        -1.7508680506       -2.8096836289       -5.2277468495
 C        -2.7556985363       -1.7171604748       -5.2494297677
 O        -3.7944349739       -1.8677131009       -4.6222424417
 C        -2.5432665871       -0.1950138627       -5.7939657623
 C        -3.2742789820        0.8739512275       -4.9059641158
 C        -2.4903528623        1.4665169394       -3.7864202468
 O        -1.2908201617        1.6268773445       -3.8674346000
 C        -3.2888651228        2.1598685988       -2.6487230468
 C        -3.7151329941        0.9522099940       -1.7151721424
 O        -4.8796053915        0.6287495488       -1.4270578299
 C        -2.6646226559       -0.0135413862       -1.0325851636
 C        -3.3020240792       -1.0071085262       -0.1087660834
 C        -4.3649124921       -1.9145268142       -0.8249570867
 O        -4.0839557249       -2.2318151017       -1.9703331798
 C        -5.6369180048       -2.3721442621        0.0326131229
 C        -6.7626699832       -2.5327956045       -1.0438092318
 O        -6.7390170730       -3.4333644183       -1.9007861800
 C        -7.8895698486       -1.5195355765       -0.9345524826
 C        -8.8950937194       -1.8395800042       -2.0844802908
 C       -10.3372924255       -1.3963469023       -1.7402108695
 O       -10.6018847112       -1.1038452672       -0.5731899310
 C       -11.4170472092       -1.1511965184       -2.9034944982
 C       -11.5097452960        0.3765159510       -2.8493746952
 O       -11.0728284721        1.0892035696       -3.7262745479
 C       -12.2533897332        0.9995577169       -1.6238787426
 C       -10.9211566278       -1.6011214562       -4.3693007278
 C       -12.7456132920       -1.8169033901       -2.5879950486
 C        -5.2983002954       -3.8294880738        0.4758683658
 C        -5.9135993980       -1.4665350391        1.2614657006
 C        -2.4420446594        3.1400420510       -1.8553609146
 C        -4.6168676548        2.8646098394       -3.1176421042
 C        -1.2107214754       -3.0266256795       -3.7979049172
 C        -0.5204608591       -2.4169214996       -6.0384737553
 C        -2.5698090985       -9.8426771538       -5.4786694158
 C        -4.0060695635       -9.0549902050       -7.5402892933
 C        -8.3495351490       -6.3145358753       -1.8770997147
 C        -8.5529840858       -8.1401325436       -3.7190636418
 C        -6.5287202719       -0.8835611252       -7.5390004513
 C        -8.7807892027       -1.9876498085       -8.4855374575
 C        -2.5176643212       -4.0885633205      -12.3159783444
 C        -1.4624338761       -2.1108299826      -11.0781228747
 C        -2.5280029290        1.8422909736      -17.2420028716
 C        -4.1811705316       -0.0503463323      -16.7260474953
 C         1.2750612643       -1.8500234309      -22.2069821868
 C         2.0928716071       -2.8823176886      -20.1421660631
 C         6.0215289037        3.1253980758      -21.6245298503
 C         5.3040424729        4.0035907824      -19.4390888326
 C        -1.1940443591        5.2336405892      -24.2458036732
 C         0.7339259953        6.8834583719      -24.3327022936
 H        -0.9822309981        9.0230828290      -23.0145290292
 H        -2.3028975633        8.4405935966      -21.9570716572
 H        -2.3109458530        7.9654889652      -23.7945375801
 H         1.3497265111        6.1689358097      -20.8834001213
 H         2.3388176250        6.2857513071      -22.2842761891
 H         2.0452499693        4.1684711365      -20.0246044398
 H         3.3180655879        5.2546663598      -20.1798537234
 H         5.4474199829        0.5644658821      -18.8638789853
 H         5.7653938086        0.2929278671      -20.7106723343
 H         3.4394665536       -0.5293442724      -18.6762444845
 H         4.6305825401       -1.5972863337      -19.5146541714
 H         1.4346262468       -1.2890324669      -18.0935593003
 H        -0.0943040008       -1.9240430895      -18.4453104226
 H        -0.2347003324        0.9524730212      -18.3854522784
 H         0.0454106226        0.2083425932      -16.8024400349
 H        -4.0299445745        0.8233734743      -14.2180013412
 H        -2.5208102031        1.8025215772      -13.6826222691
 H        -3.1292013932        0.2061675337      -11.8300688138
 H        -1.5555390992       -0.0883219822      -12.6926525205
 H        -5.4884082983       -3.7927356499      -11.5918596603
 H        -5.4985242621       -2.2074854190      -12.3065782649
 H        -7.5277594957       -2.2281636196      -10.8770394069
 H        -6.2196167498       -1.0979566283      -10.2591937774
 H        -7.8560880179       -4.9588765394       -7.6702095093
 H        -9.0671602558       -4.4785671556       -6.4373389824
 H        -6.3036356809       -5.7109841261       -5.6891237538
 H        -7.6759858864       -6.6615349708       -6.2163836795
 H        -6.4702022973       -9.1224424565       -2.8451161825
 H        -5.3697141712       -8.3018859699       -1.7326614227
 H        -4.3021881167       -9.7514008216       -3.4326772727
 H        -3.5183205163       -8.1512770498       -3.4871959499
 H        -3.6781502952       -5.7696168002       -7.1966050777
 H        -2.3482541501       -6.9141193971       -7.9428679062
 H        -1.5668523377       -4.6792789287       -7.6086053204
 H        -0.8310500918       -5.3229724938       -6.1313973011
 H        -2.9339838903       -0.2391196189       -6.7604981302
 H        -1.5444863715        0.2360525875       -5.9400157262
 H        -4.2021296549        0.4793754115       -4.6465987342
 H        -3.3659655490        1.6814846083       -5.5798540031
 H        -1.9328341456        0.5407897481       -0.4458693356
 H        -2.1122158472       -0.4226837628       -1.9266307311
 H        -3.7605402475       -0.4245141182        0.7364509631
 H        -2.4117058459       -1.5474790287        0.2764490188
 H        -7.5373677441       -0.4633410927       -0.9946715890
 H        -8.3448705712       -1.6503698888       -0.0267310189
 H        -8.7308807874       -2.8802719587       -2.3704201479
 H        -8.5839273495       -1.3978477951       -3.0227186579
 H       -12.2689019355        0.3412463246       -0.8235088187
 H       -13.2761814299        1.2402544155       -1.7667886329
 H       -11.8232559167        2.0075409156       -1.4190608365
 H       -10.0496478509       -1.1917294743       -4.7938739132
 H       -11.7260277802       -1.2801419945       -5.0561918976
 H       -10.7523978950       -2.7000616048       -4.3209083369
 H       -12.9335260836       -1.9112798058       -1.5357536839
 H       -12.7457962062       -2.6801258978       -3.2283768964
 H       -13.6883021682       -1.2374564602       -2.8660272295
 H        -5.8240793807       -3.9749261311        1.3960572415
 H        -4.2500578522       -4.0685025955        0.7019883705
 H        -5.5076872926       -4.5509672505       -0.3290071214
 H        -6.6394165827       -1.8997564071        1.9027372005
 H        -5.9919248858       -0.3913447520        0.9367413401
 H        -4.9895356661       -1.3907742503        1.8497163694
 H        -1.4002294319        2.7613204435       -1.9116348572
 H        -2.6933693782        3.1546847857       -0.7952102696
 H        -2.6031795010        4.2286157889       -2.2511161499
 H        -5.0589637951        3.5357767260       -2.3121378355
 H        -5.4416812642        2.1434708618       -3.4439662787
 H        -4.3871104966        3.5353945660       -3.9873516895
 H        -0.6696235365       -3.9592892364       -3.6396565926
 H        -2.0508180181       -3.0523074771       -3.0977081081
 H        -0.5492796767       -2.1268736682       -3.5932439499
 H         0.3194641699       -3.0341128642       -5.7143690408
 H        -0.1838718701       -1.4466644579       -5.7052955643
 H        -0.6995849098       -2.4595587015       -7.0871761097
 H        -2.0590538263       -9.4644791007       -4.6222453751
 H        -1.8473403735      -10.1239584180       -6.2082300902
 H        -3.1613435012      -10.7704380910       -5.3555617635
 H        -4.8730729179       -8.5052838347       -7.7532274364
 H        -4.1446186316      -10.1168708903       -7.6217721908
 H        -3.3283993462       -8.7553495801       -8.3049411639
 H        -7.8826638438       -6.9595894884       -1.1789681361
 H        -9.4290715537       -6.2984085856       -1.7946455004
 H        -7.8873159083       -5.3252427320       -1.6958106539
 H        -9.5984509656       -8.0029971050       -3.9222568014
 H        -8.5146036676       -8.7716853673       -2.8562384673
 H        -8.0340860234       -8.6326634382       -4.5210064869
 H        -6.9441326447       -0.0953540611       -8.0741959980
 H        -5.5178420338       -0.9350034573       -7.7891939992
 H        -6.6170592845       -0.7227239688       -6.4465185467
 H        -9.0954662096       -2.5827953315       -9.2838457429
 H        -8.7049597378       -1.0948633009       -9.0636595450
 H        -9.5016094926       -1.8356148785       -7.6671208394
 H        -2.6954243089       -4.7705968496      -11.4686283567
 H        -1.6109658465       -4.1993549821      -12.8314217261
 H        -3.2698060485       -4.3361997688      -13.0908242346
 H        -1.6939736201       -1.3082761616      -10.3203761273
 H        -0.7294611181       -1.8656747122      -11.7508198005
 H        -1.0403055237       -2.8852243608      -10.4234243948
 H        -1.7235795296        2.3752199090      -16.9470295963
 H        -3.2606677105        2.6208171091      -17.0522671132
 H        -2.5128918328        1.9833134748      -18.3717725216
 H        -4.3701133456       -0.9136427505      -16.1921969947
 H        -4.5803842803       -0.2753661434      -17.7033026512
 H        -4.8047771210        0.7181714678      -16.2848227066
 H         1.9818304204       -2.4757424583      -22.7240433994
 H         1.0468672844       -0.8399762400      -22.7226662618
 H         0.3340889451       -2.3814099887      -22.1098570493
 H         2.9822665512       -3.3733201019      -20.4967053246
 H         1.2598816879       -3.6072654078      -20.0848580162
 H         2.3797298463       -2.6944670560      -19.1188863374
 H         5.7127493791        2.6010186756      -22.5616323427
 H         6.9383665091        2.5939956388      -21.1739798569
 H         6.3182499986        4.1654979540      -21.7888433620
 H         5.3557453908        5.0993236414      -19.5177493021
 H         6.3235489622        3.7763396185      -19.1204772229
 H         4.7513822308        3.8523843388      -18.5256856276
 H        -1.3552950021        5.5665383118      -25.3091091454
 H        -2.1189252065        5.4205782172      -23.7338533410
 H        -1.1017286717        4.2008637437      -24.3737515497
 H         1.4253434461        7.5921118855      -23.8837703255
 H         0.1362034089        7.5399600360      -24.8777430961
 H         1.3156277118        6.2062817951      -24.9753255239
 Na       -5.1443862735       -3.8090783511       -3.7327931444
 Na        1.8391013340        1.7684976618      -22.0929894015
