232

 C        -1.7588432450        8.1634509684      -22.7202999398
 C        -0.9581768740        6.9451748871      -22.3153425960
 O        -0.6471400052        6.8883379826      -21.1564437584
 C        -0.2300930346        5.9205115273      -23.3790606181
 C         0.7353420536        4.8937868745      -22.5713758760
 O         0.3903570804        3.7074845430      -22.5468421697
 C         1.7625987044        5.5788888190      -21.6863495493
 C         2.5105606308        4.6574482344      -20.7582220590
 C         3.6250674875        3.8732841383      -21.5209903648
 O         3.4210543795        3.4774880468      -22.6863783935
 C         4.9083607025        3.2204439367      -20.6875088387
 C         4.2347888936        1.8915995047      -20.1187307906
 O         3.0449914403        1.9313030441      -19.9238587498
 C         5.0338476308        0.5662251279      -19.9329586943
 C         4.0667067452       -0.6059963338      -19.7221621209
 C         3.1539966517       -0.7439036083      -20.9398557745
 O         3.4763766148       -0.2216796868      -21.9556428938
 C         1.8011270060       -1.5665440744      -20.7754815362
 C         0.8327661758       -0.6531357655      -19.9845150372
 O         0.3486923966        0.3987957538      -20.5209304627
 C         0.5020806543       -0.9924063868      -18.6117211680
 C        -0.2889542066        0.0022347796      -17.8831737950
 C        -1.6899495069       -0.4761968104      -17.5211378777
 O        -2.0580405995       -1.5264504591      -18.0020566320
 C        -2.6458237468        0.4353942620      -16.7402532715
 C        -2.0902681603        0.1931710615      -15.2961937838
 O        -0.9443649913       -0.1588937833      -15.1638983720
 C        -2.8356210709        0.7226419943      -14.1199393906
 C        -2.7001666508       -0.2058566170      -12.9544015041
 C        -3.0663994601       -1.6893466111      -13.1223017667
 O        -3.6352607999       -2.1980619133      -14.0739277319
 C        -2.8414455875       -2.5378151209      -11.8365103990
 C        -4.0190509208       -2.3891427078      -10.8250611305
 O        -3.8351586506       -2.1659799704       -9.6202358019
 C        -5.4935615873       -2.7842557842      -11.2771490768
 C        -6.4898528794       -2.1185921570      -10.2882571979
 C        -6.4431999637       -2.9177821582       -8.9289083379
 O        -5.9436295469       -3.9834187582       -8.8881920536
 C        -7.2501865812       -2.1463488295       -7.7627384903
 C        -7.1370438085       -3.0880599694       -6.5272344287
 O        -6.3232065320       -2.8601644362       -5.6674245918
 C        -7.9027153970       -4.4015344215       -6.6065593260
 C        -7.4205793601       -5.6460416361       -5.7319095663
 C        -8.1835136336       -5.6526416821       -4.4145812252
 O        -9.0087740336       -4.7849628971       -4.1665792456
 C        -7.7910490202       -6.7939081017       -3.3132034058
 C        -6.2337115834       -6.9432344883       -3.1706963001
 O        -5.5957972626       -5.9481532798       -3.0136185495
 C        -5.6751057157       -8.3624266861       -2.9090874036
 C        -4.4615707843       -8.7044445638       -3.7160336407
 C        -4.7817328008       -8.6325059582       -5.2383797352
 O        -5.9079587103       -8.3934600941       -5.5940917279
 C        -3.4860980560       -8.7383357314       -6.1813434791
 C        -2.6588352354       -7.2795466692       -6.0216252790
 O        -2.4379584829       -6.8416094788       -4.9112284261
 C        -2.6556109570       -6.2742787802       -7.2782156970
 C        -1.7725404692       -5.0318314914       -6.7348356625
 C        -2.5326222652       -4.0408823482       -5.7188510291
 O        -3.6764805538       -4.3522492942       -5.5303512002
 C        -1.7477157029       -2.7517556937       -5.2003927135
 C        -2.8459055383       -1.5734766781       -5.0722915329
 O        -3.9284865025       -1.7879294805       -4.6525826096
 C        -2.5125090948       -0.2114635751       -5.7063825478
 C        -3.2778315273        0.8067576596       -4.8762893986
 C        -2.4334062711        1.6115336016       -3.8322113158
 O        -1.2420736570        1.7683881517       -3.8486902077
 C        -3.2938170789        2.0050373365       -2.5781286834
 C        -3.7859200748        0.8805976195       -1.7238908464
 O        -4.9766717550        0.6500265185       -1.5352472246
 C        -2.6017446902        0.0510192699       -1.0146442014
 C        -3.1965515019       -0.9757447098       -0.0305376317
 C        -4.3061760191       -1.8625853570       -0.7375150194
 O        -4.1428936589       -2.3222702486       -1.8556141001
 C        -5.5112530049       -2.4033021331        0.0715080963
 C        -6.7775367595       -2.5822713713       -1.0110645882
 O        -6.6832102352       -3.4693770393       -1.8125330418
 C        -7.9111104305       -1.5908156295       -1.1304243526
 C        -8.9652120277       -1.8623600493       -2.1042977829
 C       -10.3621811886       -1.4126254109       -1.7246000964
 O       -10.6774042962       -1.1694825735       -0.6052106445
 C       -11.4719909145       -1.2371337030       -2.8291311514
 C       -11.5307229254        0.3936055224       -2.7802543760
 O       -10.9916828746        1.0891427180       -3.5955007404
 C       -12.2042721573        1.0587658259       -1.5228594296
 C       -10.9288531226       -1.6126996130       -4.2066847049
 C       -12.7934863498       -1.9385862995       -2.5802771578
 C        -5.1376908605       -3.8714271877        0.5062174075
 C        -5.9708382163       -1.4277047180        1.0638043775
 C        -2.4449288481        3.0382777914       -1.7742808769
 C        -4.5916206137        2.7767968023       -3.1373621760
 C        -1.1534971041       -3.0897345615       -3.7799132447
 C        -0.4606580091       -2.4128328700       -6.1717322577
 C        -2.5855845463       -9.8043333458       -5.6245704968
 C        -3.7458882671       -9.0614348766       -7.6177857396
 C        -8.2816079859       -6.1904714946       -1.9366464824
 C        -8.4535702392       -8.0697734504       -3.6361398176
 C        -6.6625967956       -0.8090060308       -7.5580179814
 C        -8.6366130060       -2.1748823175       -8.3071814646
 C        -2.6368545350       -4.0218555383      -12.3835386132
 C        -1.4698944868       -2.2550572124      -11.0482206225
 C        -2.5334744088        1.8655705348      -17.2258472717
 C        -4.0640746252       -0.2457998666      -16.8049501302
 C         1.1810731370       -1.8389958988      -22.2239315482
 C         2.0215977027       -2.9672068029      -20.1237690642
 C         6.1153891833        2.9841315039      -21.6581889710
 C         5.2957945054        3.9958836666      -19.4054300089
 C        -1.2817887671        5.3088675064      -24.3122458816
 C         0.7884778330        6.8011380554      -24.2606628420
 H        -0.9917442751        8.9480080759      -22.7359423184
 H        -2.4265907808        8.3589377463      -21.8818723217
 H        -2.2302463314        8.0888030322      -23.6658112630
 H         1.3311506301        6.2943545559      -21.0851257757
 H         2.5147024382        6.1913286695      -22.3146877736
 H         1.8159854484        3.9323768116      -20.2968734896
 H         3.0336283894        5.1157623956      -19.9364598811
 H         5.5963832192        0.5419096737      -19.0544177068
 H         5.4951764541        0.3234028996      -20.9189108266
 H         3.5023377865       -0.4043574368      -18.8777143075
 H         4.6130684645       -1.5284272339      -19.5242086052
 H         1.4249098269       -1.3111993945      -18.0834478380
 H         0.0037949325       -2.0105232619      -18.6595064988
 H        -0.4120650046        0.8262998558      -18.5725471291
 H         0.2101876782        0.4316964940      -16.9775573885
 H        -3.8881547535        0.8450392311      -14.2510945559
 H        -2.2730740293        1.5629129558      -13.7958272104
 H        -3.3801659950        0.1446781989      -12.2138842234
 H        -1.6269280918       -0.1503982522      -12.6590236426
 H        -5.5021754146       -3.8844175341      -11.3062078643
 H        -5.7880148676       -2.5260541687      -12.2821411776
 H        -7.6067890622       -2.2678017528      -10.5385504769
 H        -6.2477914564       -1.0352827709      -10.2761397105
 H        -7.8939596400       -4.7587911862       -7.6586750647
 H        -8.9953681783       -4.2454971220       -6.3339030988
 H        -6.3130068753       -5.5068999360       -5.4043159258
 H        -7.4640048061       -6.6314065967       -6.2345067224
 H        -6.3929814154       -9.1052066829       -2.9574032601
 H        -5.4019106883       -8.2651125148       -1.8831031505
 H        -4.1670727261       -9.7707341284       -3.4629431905
 H        -3.5417502407       -8.0800637796       -3.4403901080
 H        -3.7052801948       -5.9440600380       -7.4428618110
 H        -2.1439767534       -6.8480202149       -8.0270417697
 H        -1.4744515467       -4.5453909452       -7.7052044101
 H        -0.9338334050       -5.4029030448       -6.1909034752
 H        -2.6668860602       -0.1861136058       -6.8016665161
 H        -1.4999164690        0.0093455392       -5.6098843711
 H        -4.0586616118        0.1254105654       -4.3646766006
 H        -3.7648118853        1.3750566595       -5.6110545943
 H        -1.9299727419        0.7901053615       -0.5332501691
 H        -2.0211367164       -0.3831830414       -1.8604618605
 H        -3.6231785516       -0.5049036886        0.8577259306
 H        -2.3499316841       -1.6527348786        0.3346713470
 H        -7.4293879860       -0.6552571122       -1.4631858366
 H        -8.3493132672       -1.3826128210       -0.0737522145
 H        -8.9436981862       -2.9761692864       -2.2689004757
 H        -8.6577506088       -1.6219629897       -3.1481295740
 H       -12.3435177880        0.3141232339       -0.7486884295
 H       -13.1866646790        1.6241115643       -1.5672003988
 H       -11.5138588126        1.8609534298       -1.2494345644
 H       -10.2549464274       -0.8858288854       -4.6197865679
 H       -11.7875751418       -1.5473676345       -4.9196593415
 H       -10.5124484532       -2.5597603129       -4.1878134278
 H       -13.2359605100       -1.6341527618       -1.6062123892
 H       -12.6373750096       -2.9886389531       -2.8288202672
 H       -13.5830298541       -1.6354854389       -3.2585184082
 H        -5.8520321197       -4.0876550387        1.3369405145
 H        -4.1870699863       -4.0395567526        0.9312363530
 H        -5.1839183764       -4.5507200728       -0.3475033042
 H        -6.8908181923       -1.6886102463        1.4999730809
 H        -5.9177872175       -0.4825182403        0.4935658296
 H        -5.2462116972       -1.2348682382        1.8508914104
 H        -1.3668903028        2.6641196648       -1.7576494774
 H        -2.7168560460        3.1879281291       -0.7519818571
 H        -2.6180904599        3.9802157636       -2.2383779030
 H        -4.9239292103        3.4146710670       -2.3060285617
 H        -5.5172074445        2.1465670557       -3.3944005159
 H        -4.3362730078        3.4577864720       -4.0316718334
 H        -0.4874041499       -3.9956558417       -3.6752839293
 H        -2.0051012731       -3.2760205814       -3.0066120990
 H        -0.6372317482       -2.1721662458       -3.5420741206
 H         0.1541736682       -3.3053233622       -6.2653569493
 H         0.1529801899       -1.7538007424       -5.6309356534
 H        -0.7463812400       -2.0315443622       -7.1459867710
 H        -2.2653429872       -9.4967149293       -4.6464282790
 H        -1.7360777472       -9.9741367208       -6.2904198786
 H        -3.1011585419      -10.7584961924       -5.6857630585
 H        -4.4932042337       -8.4276807565       -8.0523514494
 H        -3.9262334976      -10.1176996133       -7.7247504288
 H        -2.8548095798       -8.8184726497       -8.1978164948
 H        -8.0403598367       -7.0052448471       -1.2296251106
 H        -9.3605432118       -5.9399331894       -2.0230702056
 H        -7.6746725635       -5.3422217442       -1.5911251964
 H        -9.3654342556       -7.8578837478       -4.0459777228
 H        -8.6900413911       -8.6379604276       -2.8126752185
 H        -7.8362838766       -8.6956559523       -4.3130467824
 H        -7.1663573606       -0.0229991763       -8.0914532739
 H        -5.6244447516       -0.8799801102       -7.9789816580
 H        -6.6314892497       -0.5429570591       -6.5364975830
 H        -8.7986255576       -3.0977676736       -8.8407729949
 H        -8.7079429639       -1.5675170086       -9.1419892146
 H        -9.3745942765       -1.8672694176       -7.6044722276
 H        -3.0061022063       -4.7067150131      -11.6545238640
 H        -1.6596436143       -4.2091377683      -12.7819069575
 H        -3.3375542786       -4.2007261232      -13.2901428427
 H        -1.4716132897       -1.3534909566      -10.4678638993
 H        -0.6473396094       -2.3574638438      -11.7580389547
 H        -1.2953961147       -3.0396066283      -10.2092071311
 H        -1.5634140390        2.3922810656      -17.1693068704
 H        -3.0475493508        2.6607404900      -16.6913910289
 H        -2.8832601678        2.1290458690      -18.2257596761
 H        -4.0636806213       -1.2450824359      -16.3904813855
 H        -4.3973122059       -0.3759179931      -17.8242655228
 H        -4.8342400856        0.2534971283      -16.2228495915
 H         1.9494768788       -2.3429211962      -22.8971245974
 H         0.7956563550       -0.9192153124      -22.5866771468
 H         0.3578311854       -2.5100156974      -22.1198347924
 H         2.6663582492       -3.5274708376      -20.7671866780
 H         1.1051507874       -3.5486670022      -19.9957972153
 H         2.5748513225       -3.0324145752      -19.2041347618
 H         5.6894753126        2.2347926816      -22.3901715220
 H         7.0467421793        2.6105599260      -21.2003401915
 H         6.4170416245        4.0039111302      -22.2059285800
 H         5.3722153582        5.1105849386      -19.4592358810
 H         6.2647633351        3.7378370914      -18.8875585497
 H         4.6041301965        3.8220522175      -18.5769475191
 H        -1.4555491524        5.9470988974      -25.1898358203
 H        -2.2279141784        5.2007391113      -23.7922581257
 H        -1.0505539306        4.4036471286      -24.8553273125
 H         1.2130716870        7.6024308922      -23.7006361577
 H         0.2813452433        7.3409340961      -25.0255346461
 H         1.6740351694        6.1714820281      -24.6785982429
 Na       -5.2563758149       -3.7011856032       -3.7488209939
 Na        1.7075847608        1.7629700422      -22.0665943077
