232

 C        -1.9111930911        8.0306641025      -22.8511193012
 C        -0.9170700418        6.9562703149      -22.2297997285
 O        -0.6189225091        7.0401198652      -21.0375791993
 C        -0.1663822254        5.9896115303      -23.2201467433
 C         0.5622750970        4.9398113249      -22.4234354473
 O         0.1692590519        3.7628531408      -22.4346874163
 C         1.8653814365        5.4458540468      -21.8623643270
 C         2.5129112011        4.6293256322      -20.8005957053
 C         3.6059455988        3.6978873225      -21.5993714792
 O         3.4698947823        3.4285673123      -22.7853690216
 C         4.7426114300        3.1894932340      -20.6781792901
 C         4.1304861532        1.8810076901      -20.0605111367
 O         2.8959448581        1.7810747237      -19.9723951266
 C         5.0794583417        0.6093004025      -20.0052918893
 C         4.1894912492       -0.6473839601      -19.8911006012
 C         3.1899853269       -0.7748507467      -21.0532243815
 O         3.2658047480       -0.0237592719      -22.0790016569
 C         1.9067811708       -1.6211616998      -20.9422521429
 C         1.0359020514       -0.6481816924      -20.0940426992
 O         0.6140582412        0.3579449022      -20.5840509618
 C         0.6432291535       -1.0005987398      -18.6624088035
 C        -0.2545260167        0.1350570679      -18.0007910044
 C        -1.6454983538       -0.4537213983      -17.8180796250
 O        -1.9367451419       -1.4747678712      -18.3803712693
 C        -2.5915536343        0.3788305670      -16.8159745035
 C        -1.9271929599        0.1520665513      -15.3441375715
 O        -0.7464637193        0.1241401831      -15.0003070066
 C        -2.8857572176        0.5504301497      -14.2022660765
 C        -2.6785478459       -0.2084239713      -12.8277998545
 C        -3.1553081763       -1.7201991749      -13.0188386412
 O        -3.6497372264       -2.0281526889      -14.0752492513
 C        -3.0007563507       -2.7567371563      -11.8922970212
 C        -4.1350274512       -2.6339528516      -10.8003513388
 O        -3.7855952848       -2.4014114891       -9.6800600840
 C        -5.4979224801       -2.8385625831      -11.3625284530
 C        -6.5335314315       -2.2910732867      -10.4173697480
 C        -6.4841803259       -2.8490011299       -8.9731336110
 O        -5.8653363437       -3.9054014759       -8.7376843830
 C        -7.2468766893       -2.2116192940       -7.7322078679
 C        -7.0412755649       -3.1227643617       -6.4580983077
 O        -6.2498270384       -2.7333076325       -5.6293153339
 C        -7.7105745569       -4.4388848860       -6.4752163866
 C        -7.2365524412       -5.5023611950       -5.5346774476
 C        -8.1239814235       -5.5577652506       -4.2717770053
 O        -9.1458726120       -4.9201949404       -4.1943701106
 C        -7.7045326243       -6.6343102538       -3.2233554663
 C        -6.1843838183       -6.9546676093       -3.1971762035
 O        -5.3293709394       -6.0649491543       -3.3558212048
 C        -5.6115028866       -8.3756523786       -2.9258847867
 C        -4.3902475723       -8.6252194723       -3.7792241801
 C        -4.6077945639       -8.4996714410       -5.3089424790
 O        -5.6964461874       -8.2511246219       -5.8459026970
 C        -3.4020345709       -8.5358653322       -6.2188359741
 C        -2.6121717269       -7.2190550670       -6.0141493699
 O        -2.3377921745       -6.8641983062       -4.8811640114
 C        -2.4782928563       -6.2723583772       -7.3173370161
 C        -1.9323003720       -4.9175340256       -6.9392558743
 C        -2.6242816606       -4.1076421843       -5.9180998182
 O        -3.7077001474       -4.4398473281       -5.4370961936
 C        -1.8124514008       -2.7893696962       -5.3367244316
 C        -2.8041674353       -1.6631293554       -5.0817441317
 O        -3.9068677593       -1.8264573773       -4.5219364797
 C        -2.2676278498       -0.2214943909       -5.4355185065
 C        -3.2345139009        0.9544023869       -4.9561232197
 C        -2.5217257408        1.5735875913       -3.7937837071
 O        -1.3336970939        1.8747990271       -3.8827300458
 C        -3.4086581712        2.1053724848       -2.4609634712
 C        -3.7561310774        0.8034478459       -1.6512572684
 O        -4.9403504078        0.4715689950       -1.6895476879
 C        -2.6221528150       -0.0133752051       -0.9545432022
 C        -3.2525090897       -1.0299566714       -0.0704291601
 C        -4.2685874723       -1.8624403883       -0.8877045558
 O        -3.9111120909       -2.4688948170       -1.8656370525
 C        -5.5371049617       -2.3165782917       -0.0728810455
 C        -6.7114173640       -2.6771133489       -1.0153266949
 O        -6.6148779187       -3.6090282098       -1.8317026201
 C        -7.8605236651       -1.5725381396       -1.1115336445
 C        -8.9593061318       -2.0636467930       -2.1688082966
 C       -10.3076618477       -1.5413889654       -1.6806219431
 O       -10.6341951174       -1.5440710186       -0.4696308268
 C       -11.3754810158       -1.2169931932       -2.7078522439
 C       -11.5440372510        0.4044210036       -2.6497110688
 O       -10.9133112440        1.0826897357       -3.4444088625
 C       -12.2288655067        0.9972221925       -1.5059831207
 C       -11.0895705064       -1.5741387551       -4.1892632708
 C       -12.7744473744       -1.8946270936       -2.2716429812
 C        -5.1933241462       -3.5900962004        0.7004651008
 C        -6.0014245471       -1.3963595716        1.0949811573
 C        -2.4915588617        3.0425963630       -1.6110155706
 C        -4.5890758794        2.9367353179       -3.0213447840
 C        -1.3837403259       -3.2763307333       -3.8780846751
 C        -0.6509499103       -2.3208941291       -6.2004163382
 C        -2.2939907523       -9.5125872704       -5.7589128923
 C        -3.7378733140       -8.7846194058       -7.6955492474
 C        -8.2579605370       -6.2609523649       -1.8098843534
 C        -8.5390851654       -7.7860833302       -3.7677651821
 C        -6.8613356673       -0.7681571417       -7.4323085065
 C        -8.8588667638       -2.1156843327       -7.9641882186
 C        -3.0524776094       -4.3474592758      -12.3229178371
 C        -1.6200710911       -2.4530392721      -11.1835492915
 C        -2.8326779024        1.8924544832      -17.0094427757
 C        -3.9871361949       -0.3286415768      -16.8350135707
 C         1.2570342262       -1.7431040426      -22.2809296092
 C         2.1174182790       -2.9753740220      -20.2564898354
 C         5.9703630565        2.8805157589      -21.6169244658
 C         5.2745128475        4.0889932772      -19.5564410548
 C        -1.2685724597        5.2776565191      -24.0602150498
 C         0.7399458319        6.8075423031      -24.1274617936
 H        -1.3586036922        8.9439455079      -22.7889902504
 H        -2.8188359086        8.0140749837      -22.2962588768
 H        -2.1007131220        7.8613487780      -23.9072617126
 H         1.7055185209        6.4938093787      -21.3930123805
 H         2.6060686030        5.6801816751      -22.5724901581
 H         1.8570018524        3.9422882420      -20.2246683371
 H         3.0860369268        5.1977421305      -20.0173355506
 H         5.5824598617        0.8540546095      -18.9989280739
 H         5.5792909773        0.4375828479      -20.9598451861
 H         3.5136632728       -0.4892015669      -18.9628929930
 H         4.6094121925       -1.6311872860      -19.7462026172
 H         1.5382861014       -1.0698048910      -18.0471058871
 H         0.3956357693       -2.0549642298      -18.6120931190
 H        -0.3059048907        1.0493276477      -18.6509806503
 H         0.1625554331        0.4807725771      -17.0589595938
 H        -3.9408767592        0.3852430405      -14.3821796573
 H        -2.6187325187        1.6315582730      -14.0273063939
 H        -3.2870170554        0.2972420040      -12.0192421842
 H        -1.6214796168       -0.2143928653      -12.7093171336
 H        -5.6642799245       -3.8395336694      -11.6956574543
 H        -5.5654556309       -2.2546347704      -12.2870709874
 H        -7.5504486862       -2.3648810770      -10.7360283918
 H        -6.2285091723       -1.2796268907      -10.2904397382
 H        -7.8039515462       -4.8727440648       -7.4496372077
 H        -8.7028520829       -4.2264768444       -6.1567337777
 H        -6.2118187741       -5.3821104046       -5.3687781737
 H        -7.4211007927       -6.4991645751       -5.9844532763
 H        -6.4525597677       -9.0606577230       -3.2518128741
 H        -5.4709363029       -8.4431741490       -1.8313297189
 H        -3.9043083959       -9.5480322888       -3.6191210779
 H        -3.6452186853       -7.9164403225       -3.5510578024
 H        -3.5046800270       -6.1814802284       -7.5771848575
 H        -1.7806019311       -6.7783178266       -7.9956371080
 H        -1.7571300480       -4.4179963915       -7.8890248305
 H        -0.8972971099       -5.2070010488       -6.4529048131
 H        -2.0384325193       -0.1185827738       -6.5009646351
 H        -1.2070234201       -0.2218069343       -4.9285006330
 H        -4.1098612080        0.3993250466       -4.7823453022
 H        -3.4065324655        1.6596534954       -5.8613700872
 H        -1.9939305402        0.7432382206       -0.5174350901
 H        -2.1076601721       -0.5071294877       -1.7797223852
 H        -3.6974857811       -0.6360682936        0.8690413929
 H        -2.5689724084       -1.7506296952        0.3335020255
 H        -7.3935375344       -0.6090432510       -1.4557878124
 H        -8.3038757922       -1.3996621100       -0.1792476324
 H        -8.9538356656       -3.1550200919       -2.1986458399
 H        -8.7488563239       -1.8893593020       -3.2131104283
 H       -12.8489540169        0.3843839965       -0.8780035945
 H       -12.8848916672        1.7373072638       -1.9280316768
 H       -11.5270358296        1.6832423097       -0.9479525518
 H       -10.3861772812       -0.8499287660       -4.6154573198
 H       -12.0047377201       -1.4782154334       -4.7739440592
 H       -10.8352796044       -2.7039994630       -4.4207776103
 H       -13.4504045630       -1.2052098144       -1.8470567789
 H       -12.6844219820       -2.8085901738       -1.6935766281
 H       -13.2690259233       -2.2226912534       -3.1996721900
 H        -6.0270155002       -4.1304123561        1.0642988938
 H        -4.6665260332       -3.2652869792        1.6416234709
 H        -4.5467449320       -4.3049212942        0.1652930071
 H        -6.9419200327       -1.9054057518        1.4059687867
 H        -6.2248686135       -0.3344864397        0.9135958572
 H        -5.3022113510       -1.5327466365        1.9058963159
 H        -1.7762028282        2.4519301253       -1.1948917307
 H        -3.0837061954        3.4327825175       -0.8024435947
 H        -2.2310696331        3.9951948535       -2.0926880841
 H        -5.2493075288        3.2414658874       -2.2417075735
 H        -5.1828381060        2.3320289531       -3.6385811154
 H        -4.2736696206        3.6719525754       -3.6651265998
 H        -0.6888983109       -4.0283924160       -4.1039523656
 H        -2.1302745601       -3.8226928345       -3.4341355234
 H        -0.9562699910       -2.5110677503       -3.1887491395
 H        -0.0558366699       -3.2129585800       -6.4686355016
 H        -0.0909264071       -1.4910699524       -5.6594591288
 H        -1.0828276314       -1.9599851710       -7.1345936560
 H        -2.0593190262       -9.2218971181       -4.7271438769
 H        -1.4501120434       -9.4665875437       -6.4519121029
 H        -2.6662331583      -10.5495985429       -5.8927590361
 H        -4.2227330338       -7.8590831746       -8.0760217888
 H        -4.5029667021       -9.5950662645       -7.6638030746
 H        -2.9213729725       -9.0519371626       -8.3986449922
 H        -8.3409197363       -7.1266618239       -1.1528776398
 H        -9.2050657828       -5.8959200200       -2.2075638473
 H        -7.7811922023       -5.4413326810       -1.2290154184
 H        -9.6326976279       -7.4590542769       -3.6466283774
 H        -8.4982435622       -8.7356672337       -3.1112782762
 H        -8.2726629680       -8.1407544818       -4.7523131700
 H        -7.3197374433       -0.0491368044       -8.1709806515
 H        -5.7827461314       -0.7373692927       -7.5737247762
 H        -7.2515968282       -0.3708893089       -6.3890104318
 H        -9.2711827106       -3.0353259143       -8.3601179907
 H        -9.0566063474       -1.3038167203       -8.7546579543
 H        -9.2871523285       -1.6249957804       -7.0661692292
 H        -3.1404516516       -5.0434333756      -11.4291459272
 H        -2.2425136556       -4.5598699401      -13.0637725733
 H        -3.9738191617       -4.5755183397      -12.8216327464
 H        -1.7198980198       -1.3206246108      -11.0119039223
 H        -0.7445702838       -2.7280961527      -11.7143342028
 H        -1.5618475362       -2.8468582216      -10.2045730578
 H        -2.0470363202        2.5214424558      -17.1817669411
 H        -3.2162901012        2.4719609368      -16.2059290891
 H        -3.4932645800        2.2158476377      -17.8146660290
 H        -4.0994518206       -1.3522007256      -16.4680362634
 H        -4.3962787809       -0.3111228647      -17.8820378908
 H        -4.6805950548        0.1998070825      -16.1392925499
 H         1.9984939895       -2.1341562232      -22.8538505204
 H         0.8488931429       -0.7600699289      -22.6203810936
 H         0.4656472642       -2.4754619044      -22.2533842708
 H         2.5130908318       -3.7738820666      -20.8864928984
 H         1.1752470160       -3.4007780043      -19.9331346329
 H         2.8084013898       -2.9870296994      -19.4192273048
 H         5.7139298358        2.2889176507      -22.4298718324
 H         6.8059502788        2.5378060292      -21.0345831513
 H         6.2902499834        3.7778890379      -21.9531729759
 H         5.8863223906        4.9098965779      -19.8961469626
 H         5.8002700170        3.6233711603      -18.7547105030
 H         4.5134631257        4.5416713668      -18.9119886751
 H        -2.1674168211        5.8292227398      -24.3755675541
 H        -1.5627854898        4.3446991232      -23.5748870594
 H        -0.8818451700        5.0900850263      -25.0542255206
 H         1.4450727774        7.5604559325      -23.6344081895
 H         0.0741410626        7.4069429826      -24.7728316973
 H         1.3120268978        6.1456126316      -24.7344285908
 Na       -5.2833378739       -3.5059056944       -3.6233830112
 Na        1.4368718957        1.7807141066      -21.9883400243
