232

 C        -1.9930114051        8.0228405383      -22.8313963316
 C        -0.9348529773        7.0550021848      -22.2020189148
 O        -0.6858284710        7.1371484772      -21.0356844595
 C        -0.2398148642        5.9825508424      -23.2895006089
 C         0.6026011303        4.9381724726      -22.5114244498
 O         0.2239218005        3.7674084855      -22.2491243670
 C         1.8934679046        5.4963960710      -21.9189568019
 C         2.5663499891        4.6106708343      -20.9028101601
 C         3.6312264777        3.6922235177      -21.5353829575
 O         3.4241946668        3.3988159232      -22.7626880145
 C         4.7736356606        3.1136240020      -20.7036199301
 C         4.1791453745        1.7661311504      -20.0835590680
 O         2.9884825247        1.7196093931      -19.8456596332
 C         4.9872801763        0.5006700221      -19.9039217527
 C         4.2420714546       -0.7832364808      -20.0572496976
 C         3.1711231362       -0.7003160940      -21.1498362826
 O         3.2311115804        0.0933277270      -22.1122353343
 C         1.9102535655       -1.6358225467      -20.9898275657
 C         1.0089580814       -0.6314551454      -20.0815553863
 O         0.5695726619        0.4136495349      -20.6206654928
 C         0.7339237371       -0.9011782143      -18.6264404904
 C        -0.1248865325        0.1948709011      -17.9706810984
 C        -1.6120713677       -0.3591814418      -17.8387283837
 O        -1.9953376627       -1.3129170087      -18.4956710317
 C        -2.6133519421        0.2374709522      -16.7182474181
 C        -2.0291887312        0.2995140684      -15.2307235372
 O        -0.8473651285        0.2143530333      -15.1364159197
 C        -3.0359175521        0.4912876049      -14.0792779733
 C        -2.5882542193       -0.3855814485      -12.8188427935
 C        -3.1087615278       -1.7643731548      -13.0413459671
 O        -3.7390151204       -2.0321008912      -14.0643134250
 C        -2.9109650006       -2.8052824286      -11.9003479356
 C        -4.0967440987       -2.6452534128      -10.8610527992
 O        -3.8297621811       -2.4129312420       -9.7168628014
 C        -5.6309921879       -2.7758160532      -11.2631376375
 C        -6.7443604697       -2.2318768655      -10.3548864553
 C        -6.6252388116       -2.8828694716       -8.9163596400
 O        -5.8984533390       -3.8289694547       -8.7741673299
 C        -7.4388281740       -2.1653203788       -7.7051198199
 C        -7.0627064963       -3.0363862330       -6.4607440702
 O        -6.3065596170       -2.6590127077       -5.5790536345
 C        -7.7011858455       -4.5103401844       -6.4743050412
 C        -7.1029857804       -5.4706448281       -5.4426026986
 C        -7.9957285560       -5.4892095617       -4.1805472064
 O        -9.0662954666       -4.9296296217       -4.2186273511
 C        -7.7528542416       -6.5869440832       -3.1162740205
 C        -6.1713827536       -6.8983901106       -3.2153805334
 O        -5.4056492451       -6.0362319191       -3.4739798498
 C        -5.6460206760       -8.3697762852       -3.1022989351
 C        -4.4144881184       -8.6088691571       -3.8809825423
 C        -4.5235681899       -8.4368496629       -5.3799409230
 O        -5.6228693622       -8.2199649990       -5.8603048219
 C        -3.2664017194       -8.5241188618       -6.2471003983
 C        -2.6173140283       -7.0688345940       -6.0074490113
 O        -2.1113397273       -6.7478011607       -4.9463514374
 C        -2.5222060985       -6.1961786375       -7.2925291703
 C        -1.8513321703       -4.8171818295       -7.0335524320
 C        -2.7138274892       -4.0765699358       -5.9133575446
 O        -3.7271040861       -4.5355416092       -5.4541216986
 C        -1.9039204769       -2.8640166932       -5.4033710450
 C        -2.8139433103       -1.6228960853       -4.9815109451
 O        -3.8674993624       -1.6806935083       -4.4691467538
 C        -2.2890208919       -0.2226314068       -5.4149860385
 C        -3.2661567904        0.9494890566       -4.8912890202
 C        -2.5277702664        1.7635429395       -3.7713338813
 O        -1.3520442999        1.9471137978       -3.6614031257
 C        -3.4195124394        2.1185981844       -2.5343716455
 C        -3.7418223859        0.8138392551       -1.7680360184
 O        -4.8579198602        0.2995534046       -1.6897185263
 C        -2.6544924430        0.0865353043       -1.0184213515
 C        -3.2111696989       -0.9614809394       -0.1289634092
 C        -4.2824083690       -2.0061250865       -0.7239697422
 O        -3.9763536180       -2.4824143108       -1.7973398435
 C        -5.5677798384       -2.3725226307        0.0466825691
 C        -6.6493127673       -2.5786426553       -1.1055566048
 O        -6.6650345499       -3.6054757962       -1.7500023684
 C        -7.8348780178       -1.6908729360       -1.0945395108
 C        -8.9352308145       -2.1044490638       -2.1647237801
 C       -10.2987582478       -1.7231937009       -1.6763487695
 O       -10.5047521142       -1.7189782831       -0.4896848396
 C       -11.4370086007       -1.1759939734       -2.6989428230
 C       -11.4510643076        0.3979894797       -2.5801324500
 O       -10.8771090164        1.0018959635       -3.4370604844
 C       -12.3204761096        1.0351279045       -1.4225625264
 C       -11.1890789293       -1.5730390522       -4.1233526952
 C       -12.7812722889       -1.8379125560       -2.1775955935
 C        -5.2201589610       -3.7241438250        0.6920535856
 C        -6.0205674147       -1.2154878698        0.9852348590
 C        -2.4964879593        3.1034467641       -1.6082536522
 C        -4.6019569543        2.9501991863       -2.8445056584
 C        -1.4124261546       -3.3888340013       -3.9816901383
 C        -0.6225909994       -2.4259041194       -6.1963715624
 C        -2.1257487444       -9.5483576090       -5.7956237428
 C        -3.8852034606       -8.7287612535       -7.6524516857
 C        -8.1816645349       -6.3910770893       -1.6217622633
 C        -8.5338332840       -7.7702240359       -3.7925131143
 C        -6.7977505259       -0.7766260085       -7.4655369909
 C        -8.9379153956       -2.0450704163       -7.9945407449
 C        -3.0700881152       -4.2799404606      -12.3948906031
 C        -1.5189927834       -2.7223525656      -11.2316931804
 C        -2.7453123121        1.7043296537      -17.0243637789
 C        -3.9913618622       -0.4367740494      -16.8328668235
 C         1.3187988399       -1.8493567790      -22.4199629461
 C         2.2961607552       -3.0312612919      -20.3480950942
 C         5.9529650906        2.8585776396      -21.6867264212
 C         5.2156707728        4.0656823626      -19.5831639912
 C        -1.3754480824        5.1499489904      -24.0312555642
 C         0.5972240174        6.9280424043      -24.1420605885
 H        -1.5838169838        9.0538163244      -22.6080554259
 H        -2.9657603651        7.7587688252      -22.3423793979
 H        -2.0652086887        7.9506622085      -23.9278652044
 H         1.5712167626        6.3596287782      -21.3231100570
 H         2.6889093871        6.0095849568      -22.5217490899
 H         1.9607953281        4.0097308837      -20.2414797852
 H         3.1606866406        5.2031333251      -20.2791612390
 H         5.3322754895        0.6101983052      -18.9481553915
 H         5.6895205062        0.3219365741      -20.8105777591
 H         3.8285349727       -1.2175347847      -19.0744174911
 H         4.9117140713       -1.6164173235      -20.4241962071
 H         1.6955636272       -1.0696091878      -18.0231661559
 H         0.4140335383       -1.8931475452      -18.5837669967
 H        -0.1548797522        1.1074216127      -18.5809728734
 H         0.3188530940        0.5195290982      -17.0200814422
 H        -4.0635232164        0.1833701143      -14.2580731276
 H        -2.9927018677        1.5937314394      -13.7090217180
 H        -3.1943809704       -0.0809632900      -11.9638945004
 H        -1.5053831942       -0.3149063238      -12.7221907572
 H        -5.9082399652       -3.8850891464      -11.2047982416
 H        -5.8317523116       -2.5265934233      -12.3467983493
 H        -7.7315315996       -2.6081392679      -10.8330437249
 H        -6.7414488399       -1.2157078065      -10.2082191364
 H        -7.5489849583       -5.0239596950       -7.4258931994
 H        -8.7520712464       -4.4344091318       -6.3440524887
 H        -6.1343325218       -5.0040906290       -5.3037632100
 H        -6.9903640054       -6.4832403047       -5.7850900368
 H        -6.4570316676       -9.0997249562       -3.3659662515
 H        -5.4137101088       -8.4664034531       -1.9796227988
 H        -4.0565920664       -9.5879499773       -3.7416147835
 H        -3.5813444405       -8.0177512560       -3.4721939789
 H        -3.5805464692       -6.1193516220       -7.5768607766
 H        -1.9235817324       -6.9158707935       -7.8520702941
 H        -1.9922029527       -4.3027738626       -7.9255830384
 H        -0.7722493417       -5.0018605911       -6.8975684699
 H        -2.1839630988       -0.1430298861       -6.4989844231
 H        -1.2580467220       -0.0785190995       -5.0183340624
 H        -4.2209719068        0.4683684876       -4.7459491233
 H        -3.3224456010        1.5870374455       -5.6963105306
 H        -2.0388109273        0.7983751206       -0.4858148882
 H        -2.0993317842       -0.3840701870       -1.8732194681
 H        -3.6855395583       -0.4482972581        0.7151134230
 H        -2.4306315071       -1.4604118753        0.4579702621
 H        -7.5985613904       -0.6624227810       -1.2974456939
 H        -8.1703282544       -1.7571305903       -0.1325261466
 H        -8.8834780093       -3.1269182523       -2.4748897823
 H        -8.6992515559       -1.6271059100       -3.0850331486
 H       -12.8585332413        0.4136406198       -0.8031752007
 H       -13.0035275343        1.7726100146       -1.7788815793
 H       -11.6391751336        1.6510880406       -0.8206949315
 H       -10.2013667312       -1.1475807677       -4.3518624100
 H       -11.9304198686       -1.2384078619       -4.9477760275
 H       -11.2336456552       -2.6520903419       -4.2447854311
 H       -13.5755640769       -1.1885992430       -1.7713153902
 H       -12.5371654173       -2.5523857746       -1.3858217498
 H       -13.2316714006       -2.4616538560       -2.9848560601
 H        -6.0765196416       -4.3245711576        1.0538952482
 H        -4.5467490697       -3.6426121441        1.5475675545
 H        -4.7904764824       -4.3588327784       -0.1155387519
 H        -6.8659946128       -1.4935098763        1.5636918525
 H        -6.4187371296       -0.3468320338        0.3153367916
 H        -5.1684221605       -0.9017219871        1.6334794014
 H        -1.6554422384        2.5624670266       -1.0586520595
 H        -3.1299106388        3.5957173959       -0.9194785073
 H        -2.2469948865        3.9766693196       -2.2318161937
 H        -5.1890680345        3.0089621814       -1.9924146668
 H        -5.2180887982        2.5584635326       -3.6411217756
 H        -4.3128573259        3.8511948110       -3.3244806176
 H        -0.7552744616       -4.1729265494       -4.1955992521
 H        -2.2084517726       -3.8360141545       -3.3847787842
 H        -0.9307059778       -2.6078833331       -3.4571518195
 H         0.1617340879       -3.2051243982       -6.0209483029
 H        -0.3947444614       -1.4334914772       -5.8170266007
 H        -0.7935679288       -2.4100276600       -7.2938628587
 H        -1.8946751016       -9.1686502193       -4.8216317916
 H        -1.2950170681       -9.5211470099       -6.4757037298
 H        -2.4906770693      -10.6137115666       -5.7804356652
 H        -4.5275957437       -7.8598729569       -7.7790172621
 H        -4.5663074714       -9.5910174024       -7.5742195034
 H        -3.2352848977       -8.8166022191       -8.5335065937
 H        -8.0192729414       -7.2533846288       -1.0479635929
 H        -9.1668891460       -6.0061840675       -1.6561909473
 H        -7.5694691727       -5.5602722181       -1.2277022894
 H        -9.5901559992       -7.6222910700       -3.6054814001
 H        -8.3106802982       -8.7359479768       -3.2994213503
 H        -8.3083597406       -8.0068527999       -4.9148873446
 H        -6.7829790650       -0.0468293245       -8.2428368928
 H        -5.7731293950       -1.0977599104       -7.2188587470
 H        -7.3497532202       -0.2908748013       -6.6441605643
 H        -9.2341209850       -2.9785693467       -8.5377157048
 H        -9.1039358825       -1.1714567813       -8.6493120350
 H        -9.5323651981       -1.7222149884       -7.0770992466
 H        -2.9912942859       -5.0790138638      -11.6662651175
 H        -2.4446518823       -4.4125269045      -13.2350256842
 H        -4.1398359268       -4.3942896498      -12.7515261716
 H        -1.4799469798       -1.7851251677      -10.6651865515
 H        -0.7673020030       -2.7680246088      -11.9328202079
 H        -1.3946454559       -3.5903669809      -10.5359571837
 H        -1.8985243559        2.3155014427      -17.1025936903
 H        -3.2956181697        2.3346109829      -16.3781974588
 H        -3.2507497836        1.9531979011      -17.9672762690
 H        -4.1018899792       -1.3492105729      -16.3152096271
 H        -4.3548650876       -0.5859872805      -17.8579420617
 H        -4.6886362399        0.1883659679      -16.2506152126
 H         2.1287159119       -2.4329778405      -22.9464427089
 H         1.0704182425       -0.8627026025      -22.8677102752
 H         0.4608234647       -2.4659021190      -22.4055663285
 H         2.9469923475       -3.5949705650      -21.0052199797
 H         1.4336358467       -3.7511638039      -20.2669767499
 H         2.8199773966       -3.0479187257      -19.3950901185
 H         5.6164341640        2.4229074202      -22.5733311560
 H         6.7410233971        2.4292358639      -21.1986015806
 H         6.3255217384        3.8830884671      -21.9768589643
 H         5.7689987584        4.9028196159      -19.9830356270
 H         5.7663810791        3.6909341698      -18.7585324172
 H         4.4933190113        4.4783429381      -18.9852682163
 H        -2.3868310385        5.6577259683      -24.0907004606
 H        -1.4749916849        4.2009388485      -23.5492277649
 H        -1.1936670862        5.0423985983      -25.0691674069
 H         1.4596302018        7.2739892013      -23.6196615094
 H         0.1003029841        7.7163186593      -24.5812972841
 H         0.9932053502        6.2207321778      -24.9638998753
 Na       -5.1434345566       -3.5953432757       -3.5963922602
 Na        1.4119497651        1.9192184101      -22.0538950850
