232

 C        -2.3903188403        7.9127720348      -22.5950885632
 C        -1.0693998451        7.1486909226      -22.2159988513
 O        -0.7142079289        7.2045707575      -21.0569429696
 C        -0.4418917217        6.0456424080      -23.3088639095
 C         0.5908417666        5.0824471987      -22.5331565266
 O         0.2599437994        3.9282292820      -22.2345328299
 C         1.9310601576        5.6856231415      -21.9788423382
 C         2.7424341172        4.9109931590      -20.9235235940
 C         3.5965320854        3.7495712480      -21.5326431769
 O         3.3034980904        3.3003406053      -22.6376967762
 C         4.7800816473        2.9954044514      -20.7709819986
 C         4.2532204621        1.6565198197      -20.1371364744
 O         3.1042312633        1.6113212590      -19.6195038027
 C         5.1897886031        0.4447865188      -20.0799984577
 C         4.5441509476       -0.8923991959      -20.5201790878
 C         3.2201133400       -0.6585408150      -21.2475356795
 O         3.1213989742        0.3425836970      -22.0887408794
 C         1.9470605203       -1.4101650689      -20.9942115419
 C         0.9734963911       -0.5461944737      -20.2237978858
 O         0.3276509109        0.3259038163      -20.7901565232
 C         0.7403880121       -0.9617849135      -18.7904042454
 C        -0.0432357220       -0.0809126948      -17.8063409318
 C        -1.5539054159       -0.3934629687      -17.9319288642
 O        -2.0085485340       -1.1343237739      -18.7754866416
 C        -2.5348868087        0.2762544802      -16.7774124856
 C        -1.9327445582        0.3232984291      -15.2906023376
 O        -0.7626166125        0.3543479884      -15.0697467794
 C        -2.9987528303        0.3153035051      -14.0328094063
 C        -2.6036762809       -0.6068785638      -12.8990666214
 C        -3.2702926408       -1.9664682821      -13.0715357962
 O        -4.0501169120       -2.1877941795      -13.9955342316
 C        -3.0372289510       -3.1571850633      -11.9823303670
 C        -4.1632759804       -2.6786931984      -10.9070807681
 O        -3.8342162094       -2.0882943443       -9.9206479960
 C        -5.6795503232       -2.8931809168      -11.3305129221
 C        -6.5533743450       -2.0918199526      -10.2774080442
 C        -6.5353682225       -2.8262246025       -8.9679988070
 O        -6.0934459763       -3.9676897976       -8.8602720933
 C        -7.3560212558       -2.1147526668       -7.7312915142
 C        -7.1834399686       -2.9509548894       -6.4098305665
 O        -6.7005579458       -2.5283506084       -5.3716921386
 C        -7.9068791496       -4.3410862654       -6.5388949116
 C        -7.3026108449       -5.4012077149       -5.5082670657
 C        -7.9591878202       -5.4910553307       -4.0685503124
 O        -8.8090129991       -4.7154090590       -3.7041947296
 C        -7.6037211040       -6.7755424868       -3.2082769067
 C        -6.0744585837       -7.1172505446       -3.1461269854
 O        -5.2575792452       -6.2130012762       -3.0191105621
 C        -5.4755815419       -8.5926377940       -3.0975972226
 C        -4.1255167443       -8.6514477071       -3.8356042658
 C        -4.4102325653       -8.4000104352       -5.3790872903
 O        -5.5232286851       -8.0625744582       -5.7766389114
 C        -3.1237698238       -8.4976887329       -6.3685311508
 C        -2.4934183279       -7.0522109810       -6.3887552450
 O        -1.6629537678       -6.7062124634       -5.5627544598
 C        -2.8567039961       -5.9294783550       -7.4938771554
 C        -2.2090696373       -4.5577098878       -7.2316440113
 C        -2.6942081975       -3.8411628297       -5.9878489652
 O        -3.7542430738       -4.1687653727       -5.6096007908
 C        -1.8461885330       -2.7422912969       -5.2053921823
 C        -2.7954887722       -1.5781812725       -5.0014347229
 O        -3.7801104312       -1.7556002242       -4.3684151552
 C        -2.3472100109       -0.1104727820       -5.3870510522
 C        -3.2350648872        0.9643388698       -4.7101866474
 C        -2.5479872893        1.7235998980       -3.5692894813
 O        -1.3722885214        1.9157455967       -3.6779791503
 C        -3.4199075741        2.2223748184       -2.3293711099
 C        -3.7631147367        0.7178285241       -1.7081625124
 O        -4.9323559170        0.3587870608       -1.8087682685
 C        -2.5359713365       -0.0287430038       -1.0859141032
 C        -3.1955591016       -1.0540725520       -0.0525836132
 C        -4.1239602728       -2.0572110459       -0.7290128520
 O        -3.8272993124       -2.6867795415       -1.6979192038
 C        -5.4924984164       -2.3491281168        0.0390270152
 C        -6.5724764270       -2.5514472995       -1.1423631426
 O        -6.4721694052       -3.4368455907       -1.9871150624
 C        -7.8756766908       -1.6961033917       -1.1006813835
 C        -8.9576421228       -1.8008269765       -2.2340595762
 C       -10.3895682957       -1.7718526506       -1.6123357804
 O       -10.6712312244       -2.1802034080       -0.4927678970
 C       -11.5427403235       -1.3351830073       -2.5217717100
 C       -11.3909705377        0.2281540385       -2.5296221546
 O       -10.6632429346        0.8823552612       -3.2307401161
 C       -12.0617076090        0.9081804222       -1.2749786340
 C       -11.4342777579       -1.7397048633       -4.0086965318
 C       -12.9251689789       -1.8003364422       -1.9679449471
 C        -5.3106089002       -3.6040820209        0.9180726568
 C        -5.8788783748       -1.2002050990        1.0111106273
 C        -2.7204474611        3.1972753928       -1.3677267499
 C        -4.7602967570        2.8751136562       -2.8008065665
 C        -1.3869397323       -3.3630985719       -3.8450517439
 C        -0.5366962907       -2.2449100163       -5.9329011921
 C        -2.1682853012       -9.5618028476       -5.7304537470
 C        -3.6498753126       -8.8266482484       -7.8021790933
 C        -7.9249831909       -6.2503797544       -1.6797944933
 C        -8.5468174391       -7.9705509689       -3.6683167295
 C        -6.8457307002       -0.7269650928       -7.4572705310
 C        -8.8018837385       -1.9014230867       -8.1020251791
 C        -3.4733434516       -4.4847346496      -12.5525200461
 C        -1.6766723914       -3.0770906781      -11.2445632716
 C        -2.9110134357        1.7357876409      -17.2918236276
 C        -3.8321324709       -0.4946066239      -16.7069451856
 C         1.2243531767       -1.6675335542      -22.3834070213
 C         2.2218168464       -2.7681793717      -20.3915829105
 C         5.8591321677        2.7560879642      -21.7837353081
 C         5.3761786255        3.7608350980      -19.5293206650
 C        -1.5614326803        5.1532434979      -23.8401544527
 C         0.2997940312        6.8150221000      -24.4865274559
 H        -2.3823077364        8.7506761890      -21.9345521648
 H        -3.1516008882        7.2167283923      -22.4081737380
 H        -2.4904814877        8.3004534191      -23.5710972656
 H         1.6445792012        6.6471135062      -21.4261523534
 H         2.5349530284        6.1170644019      -22.7048888986
 H         2.0630993714        4.4977398016      -20.0891508141
 H         3.5395218526        5.5147722826      -20.4001798474
 H         5.3672294045        0.1355763018      -19.0768700923
 H         5.9942110888        0.5784979405      -20.8998183566
 H         4.5419680150       -1.6442777206      -19.7252654119
 H         5.2209256277       -1.3315777416      -21.1735627299
 H         1.7705247053       -1.1544962132      -18.4142366172
 H         0.3560600496       -1.9943245316      -18.6987538307
 H         0.1490744599        1.0276504239      -17.8623183846
 H         0.2532872119       -0.3352170765      -16.8055026051
 H        -3.9470008309       -0.0882699132      -14.2804739147
 H        -3.2682708269        1.2861344994      -13.6014265977
 H        -2.8846459970       -0.2083360630      -11.8745888450
 H        -1.5433207649       -0.7744700282      -12.9838165424
 H        -5.9868909162       -3.9017219663      -11.3042209366
 H        -5.8543450018       -2.5117185916      -12.3000448651
 H        -7.5892975500       -1.9091121639      -10.5638301780
 H        -6.1092571753       -1.1917077171      -10.0533092445
 H        -7.8726395092       -4.7901972870       -7.5526435307
 H        -8.9700898826       -4.2337985731       -6.2862224460
 H        -6.2513585515       -5.1890055304       -5.3674945574
 H        -7.5221572474       -6.3981786212       -5.9517521509
 H        -6.1708068350       -9.2918612258       -3.5543157144
 H        -5.2865965884       -8.8817803528       -2.0954484565
 H        -3.5919088899       -9.5472752694       -3.5774296642
 H        -3.4122736396       -7.8924558084       -3.5402808262
 H        -3.9324863089       -5.8702078940       -7.4863831903
 H        -2.5179538388       -6.3637495961       -8.4468115688
 H        -2.4218420389       -4.0970400430       -8.2216500745
 H        -1.0324879749       -4.6880422045       -7.2826352366
 H        -2.3670156505       -0.0448220696       -6.4606694756
 H        -1.3308754835        0.3024865241       -5.0009223451
 H        -4.2108437594        0.5647617619       -4.3545038004
 H        -3.4195262292        1.8026311894       -5.5044210125
 H        -1.9484432524        0.7413677546       -0.5596617981
 H        -1.9956805523       -0.5508914149       -1.8876587160
 H        -3.6500280076       -0.5745972693        0.8241807450
 H        -2.5265362711       -1.6304888178        0.5449931225
 H        -7.6733336576       -0.5468813792       -0.9009425612
 H        -8.5254795165       -2.0390342148       -0.2382571549
 H        -8.8698645938       -2.7508066183       -2.8317713709
 H        -8.9742458982       -0.9959126398       -3.0210987067
 H       -11.9543154385        0.4435543631       -0.3077533250
 H       -13.1610727593        0.8949299128       -1.4444386621
 H       -11.8240827789        2.0510488827       -1.1484037755
 H       -10.7367604871       -1.1075455648       -4.4457041863
 H       -12.4225774802       -1.5846855496       -4.4485458944
 H       -11.3494993524       -2.7729351344       -4.2879101293
 H       -13.6581839923       -1.7634849001       -2.7334509712
 H       -13.3653593441       -1.1015510359       -1.3200286554
 H       -12.8825417162       -2.8357877205       -1.5592095991
 H        -6.0874702951       -3.8713656837        1.5571911137
 H        -4.3663310531       -3.4971391740        1.4712166392
 H        -5.2060272723       -4.4674431602        0.2702012022
 H        -6.9115067940       -1.2398314159        1.1504401311
 H        -5.8770209562       -0.1929310256        0.5713484184
 H        -5.3610774898       -1.2973229986        1.9167210666
 H        -1.6813154234        2.8899382711       -1.3851236997
 H        -3.1507989412        3.1008327317       -0.4284332378
 H        -2.8231148493        4.2670109116       -1.6631366044
 H        -5.4018489032        3.1233480010       -1.9348688617
 H        -5.3743102909        2.3615561919       -3.5585124231
 H        -4.5297682744        3.7364171377       -3.4145446984
 H        -1.1553534101       -4.4191495052       -3.9621112737
 H        -2.1846121043       -3.1986585850       -3.0907411156
 H        -0.4860762277       -2.7841687115       -3.4352248654
 H         0.0095095135       -3.0828301024       -6.3248824397
 H         0.0051027382       -1.7779677071       -5.1152424441
 H        -0.6703091384       -1.4906598774       -6.6424986538
 H        -1.7682243968       -9.1165665168       -4.8274015107
 H        -1.3717897268       -9.6383519366       -6.4558131258
 H        -2.7503334524      -10.4870365221       -5.4657063055
 H        -4.4418715479       -8.1451190810       -8.0576722018
 H        -4.0730655736       -9.8333550581       -7.8916713431
 H        -2.7940557740       -8.7189696730       -8.4564559089
 H        -7.6435399979       -7.0286240182       -0.9596119896
 H        -8.9393449138       -5.8333726610       -1.5716572971
 H        -7.3071714037       -5.3002774409       -1.5628015942
 H        -9.5538131754       -7.7574015447       -3.9359622136
 H        -8.5239247385       -8.7553927483       -2.9428534891
 H        -8.1442495494       -8.4348790651       -4.6094197882
 H        -6.7511015147       -0.0934293761       -8.3525545531
 H        -5.8107492341       -0.7505072605       -7.0117962607
 H        -7.5492832160       -0.0614250766       -6.8472199793
 H        -9.3376466185       -2.8084161181       -8.1278368187
 H        -8.7944290975       -1.3066018554       -8.9967807294
 H        -9.3372148523       -1.2943996716       -7.3559890426
 H        -3.5992576757       -5.2250471409      -11.7082195101
 H        -2.7315731876       -4.9907275034      -13.2019034935
 H        -4.4691582481       -4.4966507920      -13.0815031655
 H        -1.7184456182       -2.3546450109      -10.3190431729
 H        -0.8480364871       -2.8246470087      -11.8137271283
 H        -1.6309001983       -4.1426209593      -10.9633622112
 H        -2.2915598077        2.5312574534      -17.2257043688
 H        -3.8756515291        2.1271150373      -16.9611283949
 H        -3.0807125600        1.8692813607      -18.3995849127
 H        -3.7222009051       -1.4462109843      -16.2116050492
 H        -4.0916751170       -0.6778040464      -17.7889010144
 H        -4.7071179542        0.0632673313      -16.2958059685
 H         1.8472610107       -2.3419774746      -22.9069094310
 H         1.0957022254       -0.7094784406      -22.9373509750
 H         0.3069548134       -2.1313826186      -22.2015333766
 H         2.9871485105       -3.3429261446      -20.8680493152
 H         1.3715500919       -3.4520097663      -20.3682830451
 H         2.5119464752       -2.6275385754      -19.3740228506
 H         5.5350515638        2.0564465141      -22.5219711793
 H         6.7511680317        2.5193333663      -21.2379555304
 H         6.0130290140        3.6832716726      -22.3866888912
 H         5.4672590863        4.8781401407      -19.4823068382
 H         6.4207921439        3.4969856467      -19.2804433012
 H         4.9973235191        3.5738418422      -18.5312243861
 H        -2.4883108434        5.6710473812      -24.2764618690
 H        -1.8391151185        4.6345948637      -22.9226500091
 H        -1.1843098362        4.3468439131      -24.4798953608
 H         0.6843748345        7.8009669241      -24.1023543035
 H        -0.4829086895        6.9387810305      -25.1847048466
 H         1.0820207768        6.2320606543      -25.0654391402
 Na       -4.8992448600       -3.7021539841       -3.5994139948
 Na        1.5341666161        1.8917355961      -22.0842084738
