232

 C        -2.4439316063        7.4944157369      -22.2067733770
 C        -1.0895089343        6.9925612741      -22.0071538098
 O        -0.3132806257        7.3242994818      -21.1266420276
 C        -0.5296054030        5.8696024468      -23.0980550182
 C         0.5860567782        5.0944969725      -22.3323382995
 O         0.3134457385        3.9363354756      -22.0560087509
 C         1.8589216519        5.8081205813      -21.8962851859
 C         2.8600793911        5.0260123608      -21.0255731109
 C         3.5885730737        3.8578877688      -21.7547319400
 O         3.1864693860        3.3618768033      -22.7752171058
 C         4.8284081334        3.2674158381      -20.9409000650
 C         4.2288593127        1.9115756843      -20.4748110087
 O         3.1513435728        1.9572869272      -20.0051771133
 C         5.0630905256        0.5660442546      -20.7514260656
 C         4.2030401581       -0.6813679079      -20.4914500407
 C         3.0338223272       -0.5775768458      -21.5394268351
 O         3.1275374790        0.1752036472      -22.4819833637
 C         1.7137182904       -1.4185383551      -21.2547178138
 C         0.9547565764       -0.6178900726      -20.0730577458
 O         0.5605326535        0.4604699081      -20.3684144425
 C         0.8991304438       -1.1403990419      -18.6775028962
 C        -0.0530353346       -0.2799045403      -17.7863518686
 C        -1.5258839487       -0.4637406636      -17.8494913525
 O        -2.0365269812       -1.2012364382      -18.6522342205
 C        -2.5141991854        0.2138129486      -16.8659241711
 C        -1.9616162913        0.2020363718      -15.4749372200
 O        -0.7465810942        0.3409562902      -15.2252734329
 C        -2.8931297862        0.0269946929      -14.3273864574
 C        -2.5186520310       -1.0401032314      -13.3568173970
 C        -3.4232209772       -2.3060542660      -13.2842062212
 O        -4.1948258317       -2.2984609945      -14.2206045169
 C        -3.3587476169       -3.2897133049      -12.1346679888
 C        -4.1949122870       -2.5972425192      -11.0369541279
 O        -3.6360107652       -1.7862472247      -10.2793910810
 C        -5.6418718406       -2.8668931469      -11.0443015751
 C        -6.4556167668       -2.0563245156      -10.0408560881
 C        -6.7756792246       -2.8616019791       -8.6660929949
 O        -6.3478059378       -3.9805913680       -8.5299398599
 C        -7.4703729191       -2.1389737381       -7.4383237737
 C        -7.2088455938       -3.1642596648       -6.2993159244
 O        -6.3373365481       -3.0480671083       -5.4909329297
 C        -8.1230765132       -4.4000206322       -6.1762192704
 C        -7.5844389136       -5.6172969525       -5.3372083535
 C        -7.7616700751       -5.4491831778       -3.8575433198
 O        -8.2497829108       -4.4828752201       -3.3248700419
 C        -7.3250449314       -6.7115165063       -3.0871190474
 C        -5.7721812290       -6.8575267673       -3.2770480199
 O        -5.0019306266       -5.9321275826       -3.2994599689
 C        -5.1741010842       -8.2698575068       -3.2153547017
 C        -3.8743954340       -8.3196643770       -3.9885907902
 C        -4.0665431404       -8.0183841366       -5.4956190358
 O        -5.0410601415       -7.3917277760       -5.8281349217
 C        -2.9158015306       -8.2893826366       -6.5433193192
 C        -2.1529670999       -6.8585334584       -6.8110678537
 O        -1.0446026225       -6.6283223884       -6.4094966337
 C        -3.0679475927       -5.8337564718       -7.6662582647
 C        -2.6535909760       -4.4121979726       -7.4515982239
 C        -2.9146235100       -3.8481425340       -5.9865154373
 O        -3.9373334254       -4.2523172771       -5.4275912689
 C        -1.9964897939       -2.7651466786       -5.2340035391
 C        -2.8118011775       -1.4671633929       -4.8176258276
 O        -3.6803965378       -1.5143374072       -3.9274300957
 C        -2.3711802175       -0.0888221071       -5.4263335747
 C        -3.2503533620        1.0318088793       -4.8139619851
 C        -2.6465244509        1.5255767235       -3.5526307715
 O        -1.4253447750        1.6604342812       -3.4356558903
 C        -3.6452523647        2.0176109729       -2.3815695060
 C        -3.8040926117        0.6541069097       -1.5944147706
 O        -4.9347949836        0.3497993531       -1.2954298898
 C        -2.5900462065       -0.2116301900       -1.1016951207
 C        -3.0548774469       -1.2794410039       -0.0342812133
 C        -4.1337758793       -2.2616173642       -0.5612237315
 O        -3.9544015672       -2.8596217698       -1.6153507819
 C        -5.6049472747       -2.3390863430        0.0923154077
 C        -6.7016751560       -1.9533572879       -1.0397026225
 O        -6.5359908601       -2.2258463958       -2.1952912007
 C        -8.0184201938       -1.4118914763       -0.5856464419
 C        -9.0328157104       -1.6902102981       -1.7032551047
 C       -10.4677951471       -2.0647789913       -1.3692714961
 O       -10.7272081679       -2.8357491348       -0.4753145117
 C       -11.5424620319       -1.4545373841       -2.3118579971
 C       -11.3386595524        0.0372771952       -2.2549851287
 O       -10.6963866724        0.6067464626       -3.1314802736
 C       -11.8502806085        0.8740148008       -1.1701447819
 C       -11.3884181934       -2.0910492931       -3.7341691639
 C       -12.9691178849       -1.6918541446       -1.7428651520
 C        -5.9446957853       -3.7971325856        0.5308578617
 C        -5.7154814036       -1.3085452066        1.1879193995
 C        -2.7811474910        3.0663715847       -1.4696676846
 C        -5.0129070432        2.6391687569       -2.6856334184
 C        -1.4513406020       -3.3750917571       -3.8939176938
 C        -0.7996734872       -2.4238093273       -6.1479233371
 C        -1.8479807788       -9.3358515424       -6.0839995112
 C        -3.4149766401       -8.7227011556       -7.9161504621
 C        -7.5022575011       -6.5416038242       -1.6036746071
 C        -8.2196261778       -7.8620456165       -3.7472615986
 C        -6.6546483692       -0.9428608748       -7.1209222459
 C        -8.9115291287       -1.8532951204       -7.6289147364
 C        -4.0399707089       -4.6252754838      -12.5058656111
 C        -1.8333614570       -3.6448079368      -11.6027326412
 C        -2.6856465349        1.7047010059      -17.3357280025
 C        -3.9261506234       -0.4689638983      -17.0128319231
 C         0.7803619090       -1.4335671877      -22.4948157609
 C         2.1867753916       -2.8202974961      -20.9139044435
 C         6.0194077635        3.2530084436      -21.9638880534
 C         5.2222633646        3.9541620583      -19.6336286874
 C        -1.7021383295        4.8992003122      -23.5978818840
 C         0.0155974225        6.5861307477      -24.3767091192
 H        -2.5703758306        8.3545523005      -21.5946981289
 H        -3.1308563999        6.6850887688      -21.9699421917
 H        -2.5486553825        7.7876508696      -23.2116345708
 H         1.7638568527        6.7673212229      -21.4860449098
 H         2.4157538814        6.1415245041      -22.8361632947
 H         2.4327886616        4.5211869122      -20.0819419496
 H         3.6203403805        5.7830793887      -20.7250769416
 H         5.8814635703        0.6937577551      -19.9937627383
 H         5.3458744195        0.6581335304      -21.7926288689
 H         3.7449531924       -0.5275298589      -19.5121073143
 H         4.6636653159       -1.6815711710      -20.4045444873
 H         1.9717856885       -1.2494273373      -18.2767712416
 H         0.4871735122       -2.1206695571      -18.7142354089
 H         0.2119766704        0.7697475422      -17.8767485408
 H         0.2652465775       -0.4575351663      -16.7298676133
 H        -3.9162716369       -0.1347507284      -14.5663370740
 H        -3.0112570703        0.9365444326      -13.7319827790
 H        -2.3538590542       -0.5784208692      -12.3917208976
 H        -1.4726066235       -1.2947097884      -13.6044360471
 H        -5.8489613860       -3.8850633633      -10.9182328667
 H        -5.9666770368       -2.5369720504      -11.9979878820
 H        -7.3800655400       -1.7679156275      -10.4418560705
 H        -6.0070566930       -1.0864108838       -9.8454648199
 H        -8.4201217632       -4.8528035369       -7.1469763105
 H        -9.0425698990       -3.9492209766       -5.8127390565
 H        -6.4684792553       -5.6017121995       -5.5041953271
 H        -8.0820706685       -6.5030940721       -5.6371303288
 H        -5.8549032468       -8.9798104990       -3.6270448876
 H        -5.0630511508       -8.4767102228       -2.1428788687
 H        -3.5035132506       -9.2984599052       -3.9315702163
 H        -3.0414143788       -7.7138130794       -3.6422525395
 H        -4.1254781663       -6.0119270936       -7.3890808858
 H        -3.1303102119       -6.1133968194       -8.7006049325
 H        -3.1089330284       -3.7682976969       -8.2838898678
 H        -1.6356737304       -4.5176264467       -7.7888385610
 H        -2.4962168638        0.0119750915       -6.5524669112
 H        -1.3038779045        0.0016259643       -5.1327558410
 H        -4.3530389154        0.6439810984       -4.7079494569
 H        -3.3464136130        1.9201734347       -5.3932573374
 H        -2.0269754675        0.4742579245       -0.4776333223
 H        -1.9961416642       -0.7528304638       -1.8618920519
 H        -3.5040004091       -0.7693255993        0.8107167500
 H        -2.2356216189       -1.9606822219        0.3301258833
 H        -7.9435061024       -0.3182358995       -0.3995870962
 H        -8.2623446340       -1.8487557743        0.4631721568
 H        -8.6390441738       -2.6662138630       -2.1328944691
 H        -8.9928493295       -0.8906250049       -2.4635520264
 H       -11.4857182518        0.5316605576       -0.1394795621
 H       -12.9761531830        0.8906272843       -1.1709803639
 H       -11.5297399350        1.8721024762       -1.1998293245
 H       -10.3584455709       -2.2444097635       -4.0656993672
 H       -11.9061356548       -1.5477664364       -4.5159666779
 H       -11.6967449192       -3.0833092345       -3.5973293500
 H       -13.1163930070       -2.7978682734       -1.7796333409
 H       -13.7192256054       -1.2797640508       -2.4775310425
 H       -13.1578119781       -1.4517450276       -0.7132338371
 H        -6.8681384291       -3.8442967781        1.1560021379
 H        -5.1771259209       -4.1775305333        1.1366880659
 H        -5.9854786600       -4.5108718605       -0.2673173637
 H        -6.7356774706       -1.2488493470        1.5767463944
 H        -5.4117430718       -0.4099196459        0.7469597364
 H        -5.1104452865       -1.3735544441        2.0882078640
 H        -1.7745079830        2.7521522628       -1.1885621468
 H        -3.4053421758        3.3346967849       -0.6393954063
 H        -2.5700641689        3.8433931244       -2.0983554979
 H        -5.7211839567        2.7903154942       -1.8937774892
 H        -5.5125256340        2.0090892634       -3.4394856569
 H        -4.9047626611        3.6950413043       -3.0645210717
 H        -0.9603821596       -4.3539705294       -4.2442804818
 H        -2.2413186037       -3.5316280939       -3.1205289602
 H        -0.6036427233       -2.8518124930       -3.4726384858
 H        -0.2525623222       -3.3084133156       -6.3432704459
 H        -0.1665266745       -1.8743689987       -5.5488122054
 H        -1.0113353985       -1.8657076702       -7.0358865925
 H        -1.3732150277       -8.8639294884       -5.2223847720
 H        -1.0472903384       -9.3447619888       -6.8394653607
 H        -2.3081787666      -10.2736810946       -5.7989390817
 H        -4.3568433151       -8.2254692518       -8.0372645065
 H        -3.5510398802       -9.7764743875       -8.0099696728
 H        -2.7088767036       -8.4369741354       -8.6810818246
 H        -7.2012159782       -7.3451960220       -0.8964765146
 H        -8.6087535175       -6.4497567492       -1.4690866012
 H        -7.0194573669       -5.5838361752       -1.3799430979
 H        -9.2453152017       -7.5214857974       -3.8178641422
 H        -8.3716291772       -8.7163849951       -3.1134487991
 H        -8.0113049659       -8.2193173082       -4.7191913053
 H        -6.6616449398       -0.1369777991       -7.9146852561
 H        -5.5796053765       -0.9747881986       -6.8510722333
 H        -7.0231367690       -0.5945713939       -6.1830821799
 H        -9.4313347901       -2.7412303114       -7.9804875727
 H        -8.9991535240       -1.1229451329       -8.3644696866
 H        -9.4013951612       -1.5876507917       -6.7146383131
 H        -4.0349173725       -5.4560471494      -11.8013364155
 H        -3.6148203089       -5.0978681189      -13.4147888286
 H        -5.0470914300       -4.4495467925      -12.9171944312
 H        -1.5756272790       -2.8218560371      -11.0244979773
 H        -1.1032041349       -3.8148096202      -12.4615259457
 H        -1.9823012663       -4.5068527406      -10.9518310483
 H        -1.8245748570        2.4496100232      -17.2309613285
 H        -3.5039319661        2.2557932470      -16.9337104501
 H        -2.8481339111        1.8774194862      -18.3343071207
 H        -3.8400439212       -1.4273484230      -16.4411870204
 H        -4.1435650698       -0.7165994194      -18.0537173069
 H        -4.6676026280        0.1812359139      -16.5676730253
 H         1.3771460688       -1.7519713220      -23.3685212696
 H         0.5069979284       -0.4701077139      -22.7092939647
 H        -0.0617723947       -2.0722472359      -22.2559449692
 H         3.0760030683       -3.0987505274      -21.4537441973
 H         1.3743124290       -3.4984882039      -21.1895845098
 H         2.3714949355       -3.0381004455      -19.8707324821
 H         5.6353708278        2.7718837618      -22.8749104886
 H         6.9597644377        2.7812521094      -21.6245617667
 H         6.1105463041        4.2733143533      -22.1836210548
 H         5.2678125532        5.0386048622      -19.6594698003
 H         6.2589264545        3.8311624686      -19.3084537927
 H         4.5286184002        3.8962209191      -18.7823445712
 H        -2.6027535571        5.4572233114      -23.6511669689
 H        -1.9062794182        4.0445332450      -22.9311888930
 H        -1.3331324296        4.4229431717      -24.5201744757
 H         1.0019464572        6.9790020923      -24.1539489128
 H        -0.7002895503        7.4325786831      -24.6698716348
 H         0.0219826498        5.8128486655      -25.1508327081
 Na       -5.0874164499       -3.4884424060       -3.4957136728
 Na        1.6445048237        1.8787348244      -21.9400805634
