232

 C        -2.6752951937        7.1228297232      -21.5193819292
 C        -1.2529943600        6.9735102592      -21.8302012198
 O        -0.3953975488        7.5316502732      -21.1549406043
 C        -0.7781203114        5.8194719610      -22.9875291994
 C         0.4724667374        5.1026667202      -22.4069208592
 O         0.4042367084        3.9345304268      -22.0791114082
 C         1.8490609524        5.7710211456      -22.3300582750
 C         2.9606987087        5.0983933177      -21.3980617386
 C         4.0453346627        4.2887854834      -22.1712662428
 O         4.1557335583        4.2830851297      -23.3537082418
 C         5.0606343205        3.4833823616      -21.2251255081
 C         4.4131321283        2.1156680041      -20.9938168538
 O         3.4375412116        2.0657462375      -20.2558466364
 C         4.8884505166        0.7992518528      -21.6650511232
 C         3.9748963512       -0.3215388711      -21.2823746656
 C         2.6112295977       -0.3178877273      -21.9696647886
 O         2.3258209568        0.5298604899      -22.8339850235
 C         1.6894022122       -1.3819258128      -21.5093040741
 C         0.9930287074       -0.8480221792      -20.1039613769
 O         0.7369392375        0.2548990577      -20.0920546812
 C         0.5889529966       -1.7153875183      -18.8851794628
 C         0.0704762582       -0.8591508455      -17.7102964728
 C        -1.4626181171       -0.7950904118      -17.6528555913
 O        -1.9744133420       -1.7454086319      -18.1730506565
 C        -2.3782937076        0.3104574783      -17.0742884348
 C        -2.1186959822        0.0676845326      -15.4661732962
 O        -0.9364039458       -0.1161743936      -15.1920138589
 C        -3.2702275116       -0.0250396591      -14.5367413809
 C        -2.9522351883       -1.0862226287      -13.3687049576
 C        -3.7656740307       -2.5144659359      -13.5671098859
 O        -4.0793996082       -2.8735584328      -14.6420384900
 C        -3.7650527561       -3.5326724242      -12.2733896249
 C        -4.3199446146       -2.7120754934      -11.0899921480
 O        -3.6316259927       -2.2024919894      -10.2009208264
 C        -5.8075828011       -2.6234917917      -10.9839522558
 C        -6.4018229669       -1.8385331789       -9.7732200496
 C        -6.7521395483       -2.8093005600       -8.5511844309
 O        -6.6294586595       -4.0404352903       -8.6088369840
 C        -7.3288643472       -2.1413249843       -7.2289458601
 C        -7.2789546153       -3.0881056332       -5.9330290068
 O        -6.5656068429       -2.7091673011       -5.0287317784
 C        -8.1952373461       -4.3107171147       -5.7706646166
 C        -7.5206011478       -5.5106354690       -5.1490900494
 C        -7.2487643209       -5.3844413458       -3.6494239462
 O        -7.4201685849       -4.4564794613       -2.8996910867
 C        -6.7458719528       -6.8050112475       -3.0718090357
 C        -5.2247427714       -6.8046667580       -3.0371176898
 O        -4.5518189640       -5.8258002036       -2.7655776529
 C        -4.5320172746       -8.1480486583       -3.3364970336
 C        -3.3349063037       -8.0227413973       -4.3259197567
 C        -3.7077703356       -7.7646633973       -5.7391554262
 O        -4.8396471377       -7.4769495126       -6.0208963266
 C        -2.6128874025       -7.7998697667       -6.8739769099
 C        -2.2387691734       -6.3450275131       -7.3404687733
 O        -1.0736179258       -5.9619597654       -7.2251568813
 C        -3.2724352097       -5.4435314303       -7.8224950022
 C        -2.8872105498       -3.9515887523       -7.5178756335
 C        -2.9150080184       -3.7418238338       -6.0859296316
 O        -3.6938323288       -4.3362510591       -5.2990063789
 C        -1.9013758173       -2.7788798403       -5.3718391667
 C        -2.8273636107       -1.5573267647       -5.0446069359
 O        -3.7996486078       -1.6491561695       -4.2776182070
 C        -2.7132769885       -0.1483867451       -5.6580436690
 C        -3.5339352368        0.8469509582       -4.8177865931
 C        -2.8669422575        1.0081757176       -3.4693313542
 O        -1.6811843094        0.6612029993       -3.2646190617
 C        -3.5976907999        1.8155062592       -2.4092548581
 C        -3.8621518057        0.7164064530       -1.2011939435
 O        -4.8559733689        0.9023660182       -0.5454548469
 C        -2.8586621267       -0.4163561101       -0.8741966826
 C        -3.2105951897       -1.5049377548        0.1958583822
 C        -4.3361213529       -2.4175901958       -0.3174521884
 O        -4.0168544069       -3.2255529655       -1.1840492582
 C        -5.6525930851       -2.4746937450        0.3970391735
 C        -6.7300456094       -2.2042743029       -0.7124846579
 O        -6.3818703286       -2.2344262419       -1.8466521974
 C        -8.1741969249       -1.9020478793       -0.3723814135
 C        -9.1296300791       -1.6424523462       -1.5436100464
 C       -10.5965296138       -1.7327129494       -0.9730788885
 O       -10.6734649723       -2.0467059375        0.2109777902
 C       -11.8050718695       -1.5661126394       -1.9451571363
 C       -11.7614742429        0.0274220123       -2.1649429931
 O       -11.5035039293        0.4366039794       -3.2917348877
 C       -12.0020759555        1.0533630192       -1.0174299016
 C       -11.5431640159       -2.2847804258       -3.3115752175
 C       -13.0997059566       -1.9538380368       -1.2396635880
 C        -5.6746649682       -3.9703055010        0.8090158504
 C        -5.9521352216       -1.5508774683        1.5432266344
 C        -2.6621741146        3.0233635406       -1.9613729622
 C        -4.9877053043        2.3385123054       -2.8067707517
 C        -1.4355181911       -3.4341174268       -4.0221675056
 C        -0.7399222491       -2.3002339815       -6.2219200461
 C        -1.3179861034       -8.5776969476       -6.4598036760
 C        -3.2892873841       -8.5857089221       -8.0877643870
 C        -7.1480254055       -6.8003370514       -1.6481119812
 C        -7.2863544836       -8.0238697652       -3.9478064370
 C        -6.5337469700       -0.8429986062       -6.9021907743
 C        -8.8563989436       -1.8389042220       -7.4720272936
 C        -4.6719852578       -4.6836989279      -12.6510445052
 C        -2.3508143092       -4.0329182157      -11.9986801477
 C        -1.8429338868        1.6817826516      -17.4216586963
 C        -3.8043234383        0.1521072676      -17.6362162221
 C         0.5293723831       -1.4585105636      -22.5030550124
 C         2.4289465368       -2.7191573028      -21.3504443821
 C         6.4792968470        3.3369024168      -21.9797518525
 C         5.2162712029        4.1822600149      -19.8697889919
 C        -1.8998623375        4.7060845169      -23.1438520992
 C        -0.4544312809        6.5609886996      -24.3243323091
 H        -2.8638256373        7.7833234592      -20.6837910708
 H        -3.0065330804        6.1669774945      -21.0700167781
 H        -3.2179072284        7.4202671965      -22.4096747797
 H         1.8169043072        6.8555761528      -22.0478123233
 H         2.2639175100        5.8721080894      -23.3262962816
 H         2.4869716630        4.4710509668      -20.6680332282
 H         3.5553702732        5.8264168835      -20.9294858885
 H         5.9559309214        0.6507710323      -21.3307031398
 H         5.0416869330        1.1755221317      -22.7326244660
 H         3.8037756755       -0.2256627107      -20.1619487088
 H         4.4688502256       -1.2809159812      -21.4432221465
 H         1.4842836122       -2.2282478533      -18.5659439740
 H        -0.3004570634       -2.3160553928      -19.1244354423
 H         0.6581395924        0.0698065831      -17.7854052781
 H         0.3750131250       -1.2709662784      -16.7495892060
 H        -4.1556044115       -0.3698249431      -15.0346549416
 H        -3.4609161134        1.0085694311      -14.0951588617
 H        -3.2060488310       -0.6907039146      -12.3404047601
 H        -1.8794522074       -1.1871972480      -13.4123575582
 H        -6.0911603231       -3.7216141550      -10.8205550278
 H        -6.2075426245       -2.3838249726      -12.0255257217
 H        -7.2663499332       -1.1490513513      -10.0027119830
 H        -5.6532420995       -1.0470539558       -9.5148708271
 H        -8.7379830872       -4.6035918668       -6.6713352632
 H        -8.9362077813       -3.8980852315       -5.1547151666
 H        -6.6560221702       -5.8598752319       -5.7307127263
 H        -8.1480492186       -6.3815512665       -5.1616194580
 H        -5.2566144806       -8.9194300902       -3.6371617668
 H        -4.1789684401       -8.4690356949       -2.3137355702
 H        -2.8644133166       -8.9912887632       -4.2185862345
 H        -2.5847896099       -7.1670241629       -4.0979082990
 H        -4.3249552524       -5.6368232783       -7.5907818329
 H        -3.2451971781       -5.5722397870       -8.9442979068
 H        -3.7084419746       -3.3698074486       -7.9362601113
 H        -2.0282025846       -3.8234515853       -8.0754984930
 H        -3.0943921262       -0.0629037236       -6.6291289056
 H        -1.6415793498        0.0516099280       -5.6645173954
 H        -4.6204068873        0.4168145427       -4.7288874056
 H        -3.6551399129        1.8333171400       -5.1441786878
 H        -1.9334442615       -0.0620290433       -0.4574540567
 H        -2.4430143444       -0.9614302568       -1.7927020635
 H        -3.5504728743       -1.0453342699        1.1102127632
 H        -2.2682219462       -2.0755721777        0.3517551832
 H        -8.1618393542       -1.0952296356        0.2765503689
 H        -8.5765292005       -2.6905218735        0.2494280865
 H        -9.0849537008       -2.4207844848       -2.2748903671
 H        -8.8827355112       -0.7580625197       -2.0373700639
 H       -12.1986318066        0.5625167578       -0.0488895245
 H       -12.9584116046        1.5401384667       -1.2269359581
 H       -11.2862414182        1.7780727636       -0.9617330500
 H       -10.4739485716       -2.0886966735       -3.6577636523
 H       -12.3352224703       -2.0819245208       -4.0763531927
 H       -11.5982346719       -3.3617592295       -3.0691723746
 H       -12.9935143739       -3.0108710350       -1.0589074711
 H       -13.9764938859       -1.7125933130       -1.8391010186
 H       -13.2123712836       -1.3304167552       -0.4006481603
 H        -6.6555524769       -4.2650278661        1.2364422649
 H        -4.9582832447       -4.0623469196        1.5707339598
 H        -5.4840291293       -4.6715343684        0.0208191546
 H        -6.8233608100       -1.8524468339        2.2038040876
 H        -6.1498945601       -0.5345654069        1.2495050954
 H        -5.0920760488       -1.3563443569        2.2760448601
 H        -1.7387499741        2.5300574745       -1.6724641529
 H        -3.1059617343        3.6550238285       -1.1365047782
 H        -2.6470483703        3.6851257022       -2.7739136633
 H        -5.5852254156        2.7906137715       -2.0716749068
 H        -5.5507004786        1.5065062873       -3.1867146119
 H        -4.8606471052        2.9609549980       -3.7003253002
 H        -0.7786557207       -4.2949060651       -4.1367837198
 H        -2.2690095085       -3.8089542453       -3.4822685152
 H        -1.0180782941       -2.6427873114       -3.5249588145
 H        -0.1378552430       -3.1579003073       -6.5700108066
 H        -0.0588484981       -1.6239807408       -5.7316583932
 H        -1.0697627013       -1.8147317064       -7.1806415694
 H        -0.7026236686       -8.0110624000       -5.7585838743
 H        -0.7944229198       -8.9090421221       -7.3421563410
 H        -1.5844806480       -9.5810027190       -6.1372742753
 H        -4.3618249895       -8.4033306319       -8.1746139110
 H        -3.1441331361       -9.6544970353       -7.9117983282
 H        -2.8305566075       -8.1707862102       -8.9915564995
 H        -6.8246273897       -7.6900354162       -1.0389286048
 H        -8.2746435032       -6.6636622718       -1.6319039948
 H        -6.6990860173       -5.9165158059       -1.1641420441
 H        -8.4226286509       -7.8213650348       -4.0184699847
 H        -7.2605758381       -9.0586600009       -3.3891244952
 H        -6.9043049458       -8.2792994111       -4.9413356786
 H        -6.7985333477        0.0204874433       -7.5124939947
 H        -5.4302078002       -0.8454357863       -6.8711355246
 H        -6.8854491137       -0.4224531022       -6.0243119432
 H        -9.3002526226       -2.7980010803       -7.8805648689
 H        -9.1994679061       -0.9671081825       -8.0039787162
 H        -9.2250109482       -1.5799510660       -6.4625595618
 H        -4.5969425124       -5.4672502938      -11.9362161159
 H        -4.4545019212       -5.1535833801      -13.6075569704
 H        -5.7363157426       -4.5499421730      -12.6337048141
 H        -1.7799649446       -3.1373442624      -12.0632015840
 H        -2.2479037379       -4.7711039293      -12.8236281851
 H        -2.1779527920       -4.4649669657      -11.0237014557
 H        -0.8106464701        1.8508423381      -16.9108697582
 H        -2.3266401358        2.5751750019      -17.0381640289
 H        -1.6000265234        1.9618931709      -18.4073425006
 H        -4.0388115537       -0.9224139081      -17.3150588573
 H        -3.6715475576        0.2538026069      -18.7305800326
 H        -4.5151192399        0.8890191953      -17.1863264344
 H         0.8564184341       -1.8653205469      -23.4843516606
 H         0.0924379638       -0.5078185494      -22.5226196734
 H        -0.2452885292       -2.1828141942      -22.1381605167
 H         2.8350963582       -2.9241644274      -22.3151830175
 H         1.6231038814       -3.4489421288      -21.2491385877
 H         3.1328916165       -2.7701344471      -20.5406234083
 H         6.3665911878        3.1823391379      -23.0642162599
 H         7.2304815035        2.6347414847      -21.5300699077
 H         6.8662691810        4.2803989766      -21.9116294646
 H         5.1726127215        5.2197805188      -19.9768406518
 H         6.0462079683        3.9315895252      -19.2616175483
 H         4.4477702649        3.9935892859      -19.1341076205
 H        -2.8580013432        5.0588103310      -23.4164748098
 H        -1.7966771004        4.1013918574      -22.2421174291
 H        -1.6547183983        4.1850399463      -24.0645567486
 H         0.5287412724        6.8928190009      -24.3662824840
 H        -1.1711908296        7.4221568121      -24.3710473819
 H        -0.6380704473        5.8536077951      -25.0949578544
 Na       -5.0420328789       -3.5819880892       -3.3431019983
 Na        1.3260993672        2.0620461505      -21.5029536786
