232

 C        -2.4375099892        6.9504191240      -21.0420871094
 C        -1.0479807638        6.9131806275      -21.6616128268
 O        -0.0707780517        7.4184843749      -21.1962287469
 C        -0.8682923378        5.8679457578      -22.9691658604
 C         0.4071070670        4.9820758066      -22.5110672482
 O         0.2806246625        3.7686039292      -22.2558089762
 C         1.7444736688        5.6215699598      -22.6950757808
 C         2.8749325713        5.2548116766      -21.7334082749
 C         4.0995410123        4.5848760142      -22.4196591717
 O         4.3563960622        4.7664585777      -23.5867741739
 C         5.0663875416        3.7150209878      -21.5116513465
 C         4.3436976717        2.3290908569      -21.3714456252
 O         3.5182027217        2.0808837897      -20.5279766695
 C         4.6479715260        1.1661831382      -22.4289378865
 C         3.9872099768       -0.1044974607      -22.0585891739
 C         2.4578543271       -0.0440804354      -21.9389603532
 O         1.8334664865        0.8934111858      -22.4567266524
 C         1.6402676679       -1.2571482418      -21.4204063298
 C         0.8328512500       -0.9202040311      -20.0507144097
 O         0.3748370650        0.2234988190      -19.8667800075
 C         0.7372306103       -2.0808356641      -19.0147741429
 C         0.1279305265       -1.5447216079      -17.6499250145
 C        -1.4336237830       -1.1377658157      -17.7960293450
 O        -2.1750617611       -1.7190864178      -18.5751878868
 C        -2.0686355155        0.0796048804      -16.9358312773
 C        -2.1204497556       -0.3588713461      -15.4733268369
 O        -1.1223025200       -0.7318522364      -14.8971469673
 C        -3.5371491443       -0.2714673904      -14.7827622584
 C        -3.5600289914       -1.1239695818      -13.4060140913
 C        -4.1131308948       -2.6317370709      -13.7213860236
 O        -4.4812669490       -2.9893268147      -14.8320152818
 C        -4.0128286887       -3.6428113328      -12.3847649493
 C        -4.4151824880       -2.7542092456      -11.0920052073
 O        -3.6055170268       -2.2984654767      -10.3258812950
 C        -5.9866158690       -2.7017565671      -10.8378885488
 C        -6.3568101056       -1.8339603422       -9.5624261663
 C        -6.7968034958       -2.6723187644       -8.4228647081
 O        -6.7281104318       -3.8667782681       -8.4603747117
 C        -7.4246790145       -1.9670551989       -7.0630615607
 C        -6.9652884656       -2.8546298194       -5.9099676925
 O        -5.8985148222       -2.6759036533       -5.3153406205
 C        -7.8186843437       -4.1692650997       -5.6356367115
 C        -6.9542706402       -5.4324518769       -5.3980528399
 C        -7.0722577143       -5.8892417537       -3.9010306175
 O        -7.5237172163       -5.1115338188       -3.0640675398
 C        -6.4134112261       -7.2637739059       -3.4329929967
 C        -4.8236742164       -6.9241088359       -3.3885767412
 O        -4.3814761417       -5.8635165866       -2.9871897209
 C        -3.8896337241       -8.1822642314       -3.4569842473
 C        -2.7383232852       -7.8511410919       -4.3870197720
 C        -3.3666769768       -7.8126659592       -5.8247310622
 O        -4.5650204366       -7.5968432819       -6.0358506493
 C        -2.4639866172       -7.7934937557       -7.1297508035
 C        -2.2624355441       -6.1626794773       -7.4655510969
 O        -1.2035625105       -5.6518708559       -7.1928403446
 C        -3.5496689318       -5.4589348416       -7.9654175065
 C        -3.3391850212       -3.8737343133       -7.5642929516
 C        -3.2652318457       -3.7174927315       -6.0066822924
 O        -4.0416575288       -4.2517679694       -5.2325630163
 C        -2.2247221548       -2.6885203361       -5.4424350455
 C        -3.1014350038       -1.3991222223       -4.9781642127
 O        -3.8335811971       -1.4399808678       -4.0507584179
 C        -2.9349874094       -0.0705003066       -5.6779797936
 C        -3.5138368699        0.9581246731       -4.7542858219
 C        -2.7935715451        1.0025134086       -3.3778900583
 O        -1.6957621682        0.5270075206       -3.3713415278
 C        -3.5865249066        1.6884756224       -2.1772577711
 C        -3.7948622147        0.8033072744       -0.9577517455
 O        -4.8063609542        0.8468454263       -0.2729350743
 C        -2.6611073401       -0.1209224941       -0.6008340951
 C        -3.0454246534       -1.1481004833        0.4436322415
 C        -4.2022570481       -2.0273244536       -0.0913098856
 O        -3.9645138072       -2.8264997300       -1.0025253879
 C        -5.6416696922       -2.3984999236        0.5004569200
 C        -6.7637270844       -2.1209622675       -0.5886400733
 O        -6.5686881952       -2.2459510289       -1.7910717726
 C        -8.1113504340       -1.6181405045       -0.0748390708
 C        -9.2552887197       -2.0602723064       -0.9843087469
 C       -10.6462233548       -1.6404514755       -0.6119853524
 O       -10.8375291420       -1.3424868484        0.5384099022
 C       -11.7885284254       -1.5546791885       -1.6695127597
 C       -11.9375205467       -0.0506062128       -2.1481688836
 O       -11.6419320755        0.2422767520       -3.2673395503
 C       -12.2661328005        1.0240052149       -1.0475736388
 C       -11.6092844256       -2.4487836431       -2.9638965099
 C       -13.1983880271       -1.9336833669       -1.0797992977
 C        -5.4740153139       -3.9713082011        0.7344308241
 C        -5.8852274923       -1.7359642359        1.9004118836
 C        -2.5664358198        2.7940738825       -1.6980928322
 C        -4.9151404384        2.2148740236       -2.6795173935
 C        -1.5739493701       -3.3756284067       -4.1455990308
 C        -1.0299639700       -2.2988766746       -6.3509313324
 C        -1.0970850925       -8.4303974457       -6.9870908776
 C        -3.3088463023       -8.4871572569       -8.2131903126
 C        -6.7856364401       -7.2646877641       -1.8868078840
 C        -6.8931382571       -8.5733980891       -4.1305122936
 C        -6.8000825034       -0.6056083364       -6.8465521482
 C        -8.9629309452       -1.9341957609       -7.2034193974
 C        -4.9299676500       -4.8796151226      -12.6139087854
 C        -2.4928359437       -3.9528698412      -12.2860545644
 C        -1.0873006641        1.2998963191      -16.9765124929
 C        -3.5117312403        0.4024541425      -17.6527938204
 C         0.5493210665       -1.6333836870      -22.4331236336
 C         2.6194283392       -2.5300230210      -21.4929268004
 C         6.3845726068        3.5879341055      -22.2753327239
 C         5.2025208036        4.2779513286      -20.1210732620
 C        -2.0882599338        4.8960170773      -23.2462501710
 C        -0.4787493507        6.6555550716      -24.1894370952
 H        -2.4381808816        7.7678864105      -20.3084109826
 H        -2.5668857996        6.0649061831      -20.4663141296
 H        -3.2816263323        6.9618961096      -21.7171025330
 H         1.7959815226        6.6452651046      -22.7790036310
 H         2.0334789974        5.2530044953      -23.7318186628
 H         2.4789181384        4.5446754963      -21.0438010833
 H         3.2428533079        6.0347555985      -21.0978889852
 H         5.7862437216        1.1605212645      -22.6854173808
 H         4.3860085926        1.6249286488      -23.3826199056
 H         4.2740454540       -0.4874597639      -21.1264248013
 H         4.2394633419       -0.7940246643      -22.8988039346
 H         1.7808542649       -2.4099104363      -18.6927849086
 H         0.1291527565       -2.7642957521      -19.5596899435
 H         0.7398661016       -0.7154934524      -17.3758668256
 H         0.2780938125       -2.2661549724      -16.8005113334
 H        -4.2759269823       -0.7923338085      -15.4567368009
 H        -3.7820617703        0.7303967048      -14.5015051327
 H        -4.0893069804       -0.5961517513      -12.6209290553
 H        -2.5168650997       -1.3969916986      -13.0845807378
 H        -6.3936811009       -3.7388499563      -10.6080174513
 H        -6.5813049474       -2.4527842975      -11.7778848693
 H        -7.1429742011       -1.1944177472       -9.8262334557
 H        -5.5059044824       -1.0962836059       -9.2856981071
 H        -8.4175291982       -4.3897994373       -6.4954022677
 H        -8.5305174687       -4.0645469824       -4.8491424972
 H        -5.8597619022       -5.1715021370       -5.4508644882
 H        -6.9500841790       -6.2410870419       -6.0800996155
 H        -4.5647731055       -8.9634106422       -3.7774356444
 H        -3.6651100205       -8.5282463125       -2.4334744203
 H        -1.9311051421       -8.6829017176       -4.3365697878
 H        -2.3812424295       -6.8196121998       -4.1198354257
 H        -4.4783619224       -5.6476411405       -7.3939242958
 H        -3.6524647789       -5.7488345748       -9.0217171839
 H        -4.1442770564       -3.2086184560       -7.9026547346
 H        -2.4081512945       -3.6028988908       -8.0794666611
 H        -3.4698598677       -0.0342381295       -6.6149805993
 H        -1.9496656511        0.0970989012       -5.9440043713
 H        -4.5673425412        0.9696954859       -4.6150868762
 H        -3.2098964616        1.9844865057       -5.2267306897
 H        -1.6673682153        0.3246127893       -0.3883260156
 H        -2.3555599604       -0.6078052578       -1.5012533776
 H        -3.1811484408       -0.6792440529        1.4240891616
 H        -2.2735612404       -1.9087202991        0.6143025928
 H        -8.0766990546       -0.5519488987        0.0316968006
 H        -8.2832431102       -2.1019843391        0.8690699038
 H        -9.4051052107       -3.1058564870       -0.9657278386
 H        -8.9959437223       -1.8261031354       -1.9704453260
 H       -11.3615520522        1.1953552774       -0.5323073582
 H       -12.8698151357        0.6429784506       -0.2847171823
 H       -12.7702302403        1.9565396415       -1.4676536980
 H       -10.8733852290       -1.9897172354       -3.6359971585
 H       -12.5415276049       -2.5334249816       -3.5035174562
 H       -11.5161902308       -3.5517290776       -2.7319363586
 H       -13.2922101747       -2.9663006584       -0.8145520419
 H       -13.8596281212       -1.7468001825       -1.9231670811
 H       -13.3563193862       -1.4116913122       -0.1433803300
 H        -6.2392261065       -4.4216687314        1.3557495550
 H        -4.5100554021       -4.1807266484        1.1743773303
 H        -5.4548055219       -4.4655579778       -0.2191047664
 H        -6.8219708332       -1.8985958460        2.4376436117
 H        -6.1033485223       -0.6193501627        1.8195623412
 H        -5.1048404167       -2.0266973378        2.5720910017
 H        -1.5694986232        2.4084060655       -1.7697471578
 H        -2.8953804504        3.0074682197       -0.6994971686
 H        -2.6502426718        3.6914851353       -2.3702913676
 H        -5.4135620002        2.6881642558       -1.8460949433
 H        -5.5310775982        1.4764920069       -3.0992286549
 H        -4.7841747871        2.8897933250       -3.4560357568
 H        -0.8905944511       -4.1252027651       -4.4082652033
 H        -2.3122951711       -3.7545564260       -3.4746079568
 H        -0.9831328592       -2.5839335396       -3.6521584693
 H        -0.4623517188       -3.1294015931       -6.6821863440
 H        -0.2941734240       -1.7428022530       -5.7581495122
 H        -1.2138074992       -1.6530579967       -7.1688914628
 H        -0.5692141427       -8.2668474077       -6.0178127631
 H        -0.4092144994       -7.9863232034       -7.7391447196
 H        -1.1835388290       -9.5205598202       -7.0112887757
 H        -4.2212078593       -7.8768073240       -8.3710212243
 H        -3.6414854221       -9.4579836638       -7.8559118171
 H        -2.7786055954       -8.6567572179       -9.1473630808
 H        -6.3013458354       -8.1648559766       -1.3994794803
 H        -7.8665420318       -7.1900029464       -1.6327096447
 H        -6.4027444561       -6.3144135667       -1.4246062550
 H        -8.0227813784       -8.7193833647       -4.1406297818
 H        -6.4185434101       -9.4312456574       -3.5898787412
 H        -6.4541251277       -8.6105667136       -5.2334262443
 H        -7.0007731536        0.2164128248       -7.5306877026
 H        -5.7478414701       -0.7168777559       -6.8922811697
 H        -6.9147924002       -0.0958513755       -5.8340282149
 H        -9.3027656403       -2.8567861413       -7.6340735927
 H        -9.1563070405       -1.1019476804       -7.9259589460
 H        -9.5189185900       -1.8901440302       -6.2693049540
 H        -4.8146764024       -5.7051937623      -11.9191534654
 H        -4.7847259468       -5.3493973485      -13.5734703189
 H        -5.9780396171       -4.7151629918      -12.5128193037
 H        -1.9439963489       -2.9719396992      -12.1662906306
 H        -2.3191884164       -4.1904966850      -13.3182190145
 H        -2.3009915649       -4.8250418284      -11.6612341657
 H        -0.3535773636        1.4000578283      -16.2704917402
 H        -1.7295329167        2.2104590240      -16.8542683679
 H        -0.4131004527        1.5102246314      -17.8675895038
 H        -4.0258084608       -0.5575240694      -17.7694748295
 H        -3.0887632854        0.9049913280      -18.5430950999
 H        -4.0997028661        1.2040700159      -17.1164653933
 H         0.9388240569       -2.1977451457      -23.2411022587
 H         0.0477687682       -0.7327505334      -22.9130913387
 H        -0.2062234508       -2.2309038949      -21.9268796809
 H         3.1940109082       -2.3404475254      -22.3983182970
 H         2.0838881365       -3.4188032494      -21.5465965029
 H         3.2694820857       -2.5253480452      -20.6299106037
 H         6.1678366154        3.1564792066      -23.2224825354
 H         7.0855843282        3.0281533075      -21.7531817138
 H         6.8392245351        4.5663370026      -22.6135036412
 H         5.6969068077        5.2217584705      -19.9811510065
 H         5.8981977008        3.6730977321      -19.5654711323
 H         4.2965602488        4.2798777184      -19.5309727433
 H        -3.0301670039        5.4854162944      -23.3621293135
 H        -2.1855444154        4.0775065134      -22.5188697288
 H        -1.8101984723        4.4479827092      -24.2253534091
 H         0.2925696791        7.3292556549      -23.7958356232
 H        -1.2824335380        7.1658975555      -24.6075539720
 H        -0.0637483861        6.0824637369      -25.0023153312
 Na       -5.0965904995       -3.5536124479       -3.0243022357
 Na        1.2270471498        2.1773832821      -20.9102134837
