232

 C        -2.4318214827        6.9170733014      -21.0131859785
 C        -1.0585197346        6.7829271736      -21.5896543291
 O        -0.0864068436        7.4794109023      -21.2568067783
 C        -0.8334803679        5.8829114845      -22.9041081977
 C         0.4008139171        4.9806564057      -22.5886346627
 O         0.1979426063        3.8750147057      -22.1129260501
 C         1.7357900586        5.6325023184      -22.7869271471
 C         2.8376212714        5.1156740663      -21.8174422032
 C         4.1311670399        4.5796593481      -22.5062014917
 O         4.4059923680        4.8023277063      -23.6385896584
 C         5.0897204988        3.6259265842      -21.5806838385
 C         4.3659574928        2.3126327959      -21.4352594221
 O         3.6362058020        2.0951233130      -20.4910714618
 C         4.4783302889        1.2575485813      -22.5617555394
 C         3.8920600878       -0.0765441452      -22.0695217241
 C         2.3244414140        0.0246905958      -22.0967353132
 O         1.7761701421        1.0060295190      -22.4718370904
 C         1.6395024040       -1.2585439778      -21.5395388938
 C         1.0047857002       -0.9890222934      -20.0983979537
 O         0.5115259338        0.1408176101      -19.7943678017
 C         0.7471035236       -2.0839119528      -19.1130761699
 C         0.1116495736       -1.6556152021      -17.7280337380
 C        -1.3701357166       -1.1070090857      -17.8182421237
 O        -2.0622743384       -1.5855367082      -18.7008605693
 C        -1.9725279480        0.0741752395      -16.9568872592
 C        -2.1739893358       -0.4383109800      -15.4314662832
 O        -1.2555373449       -0.9189632065      -14.8053611367
 C        -3.5447283492       -0.3145738851      -14.7469921633
 C        -3.6645659036       -1.2411334243      -13.5637462138
 C        -4.2040436443       -2.6570032160      -13.7117658966
 O        -4.6278935945       -3.0664481973      -14.7662939425
 C        -4.0532296504       -3.5532640701      -12.4760532403
 C        -4.4600337618       -2.8195849492      -11.0506890383
 O        -3.5917738992       -2.2876730996      -10.4173413912
 C        -5.9044134338       -2.6570882083      -10.8514713116
 C        -6.4796038188       -1.8126775790       -9.6359437052
 C        -6.8279439332       -2.6973494389       -8.3633412919
 O        -6.8121285286       -3.8982260445       -8.3705370474
 C        -7.3573487960       -2.0597457759       -7.0624656063
 C        -6.8947596204       -2.9774961783       -5.9054755736
 O        -5.9659363186       -2.6166578674       -5.2578082877
 C        -7.6867333723       -4.2143653006       -5.6342370202
 C        -6.7988915574       -5.3671723491       -5.3354926968
 C        -7.0359287929       -5.8563857085       -3.8979223740
 O        -7.6273335922       -5.1266568554       -3.1700533536
 C        -6.3000457666       -7.2249585499       -3.4159658068
 C        -4.7688289743       -7.0548739028       -3.3593913798
 O        -4.3578428282       -5.9417099186       -3.1928549001
 C        -3.7064835121       -8.1960442416       -3.5527762122
 C        -2.6356717087       -7.8808305651       -4.5716501216
 C        -3.2490583680       -7.7578857551       -5.8988978338
 O        -4.4560375232       -7.5493100995       -5.9107166851
 C        -2.4486059891       -7.7738585659       -7.2466921209
 C        -2.3536295495       -6.2208448803       -7.4882403738
 O        -1.3353976501       -5.6723786938       -7.1367141824
 C        -3.5044187252       -5.4044521787       -7.8820929757
 C        -3.4983246851       -3.9388713375       -7.5144261377
 C        -3.2184685553       -3.6423452674       -6.0352319958
 O        -3.9984586068       -4.2037579866       -5.2740309757
 C        -2.2200635662       -2.6356059959       -5.3757828336
 C        -3.0914929636       -1.4655691649       -4.8822002717
 O        -3.9904834994       -1.6317530039       -4.0368333767
 C        -2.8818734769       -0.0469697408       -5.6226595526
 C        -3.6010209213        0.9456743128       -4.7953908696
 C        -2.7525308305        1.0761558402       -3.3724294444
 O        -1.6381271734        0.6332056246       -3.2865047656
 C        -3.5171351668        1.7199965562       -2.1909501392
 C        -3.7597229142        0.8054558675       -0.9512284889
 O        -4.8503480890        0.7255576734       -0.3589843732
 C        -2.6297897591       -0.1124087182       -0.5323818084
 C        -3.1443009094       -1.2101249677        0.6135155868
 C        -4.1403567680       -2.1118735464       -0.1015787587
 O        -3.8482719497       -2.6643617118       -1.1337721436
 C        -5.5898119356       -2.4284184759        0.5589080162
 C        -6.7419587588       -2.0385386716       -0.4964444673
 O        -6.6043381693       -2.1419003534       -1.7075538010
 C        -8.1268730912       -1.5768810606       -0.0480601536
 C        -9.1918657583       -2.1918761110       -0.9833473208
 C       -10.6806075110       -1.6255158670       -0.5871145288
 O       -10.8853450102       -1.1480193364        0.5449884622
 C       -11.8403854329       -1.5771856604       -1.6297502994
 C       -11.8642982127       -0.1061035001       -2.0878968553
 O       -11.6005820268        0.2148418819       -3.2353881027
 C       -12.3039771554        0.9802800119       -1.1290289256
 C       -11.6035954799       -2.4063815682       -2.8838122619
 C       -13.0982268186       -1.9704978268       -0.8705139060
 C        -5.5776050785       -3.9811564869        0.8479512863
 C        -5.8806052564       -1.8154702720        1.8743164304
 C        -2.5508479374        2.9442847629       -1.6908360482
 C        -4.8863562838        2.3567385100       -2.5039742971
 C        -1.5999858568       -3.3356884153       -4.1379588353
 C        -1.1588116103       -2.3543460089       -6.4046583127
 C        -1.0171298796       -8.3876253456       -6.9994483775
 C        -3.2913441089       -8.4895473813       -8.3283155776
 C        -6.7242495256       -7.4621665348       -1.9580218824
 C        -6.7593257764       -8.4286119779       -4.2141124349
 C        -6.8522443194       -0.5598584722       -6.7950041311
 C        -8.9202730976       -2.0400636922       -7.0937580349
 C        -4.8379255689       -4.8283988348      -12.5557875900
 C        -2.5888713105       -4.0121829875      -12.3797604807
 C        -1.0789076431        1.2605924759      -16.9548914996
 C        -3.2765648130        0.4289814461      -17.6555625952
 C         0.4221214044       -1.7588983893      -22.3770288453
 C         2.6753485164       -2.4653030528      -21.3662486892
 C         6.4691925709        3.5297514749      -22.2900562925
 C         5.2342472113        4.3884086486      -20.2162298864
 C        -2.1224503608        5.0071562960      -23.2345116157
 C        -0.5350022294        6.7079786824      -24.1389845744
 H        -2.5229511311        7.7621958232      -20.2566335051
 H        -2.6233093694        5.9825123418      -20.4537840882
 H        -3.2383508574        6.8832731235      -21.7595124732
 H         1.6971631017        6.7493142772      -22.5165843938
 H         2.0686411666        5.5662100496      -23.8000366375
 H         2.3826291892        4.3847492685      -21.1813615242
 H         3.2386512400        5.8178560474      -21.0705695218
 H         5.4432353237        1.2286519409      -22.8546472083
 H         4.1950660456        1.9022058875      -23.4074308465
 H         4.1456606716       -0.2012218241      -21.0509283324
 H         4.2676195965       -0.8663399890      -22.6622575988
 H         1.7012595806       -2.5391169370      -18.7991042137
 H         0.0499844642       -2.6600642056      -19.7330108008
 H         0.8929059478       -1.1331160171      -17.1503197225
 H        -0.0719528295       -2.5630418484      -17.1733797992
 H        -4.3287401378       -0.5710426905      -15.4733791923
 H        -3.6309535832        0.6033036842      -14.2369034906
 H        -4.3428797208       -0.7258903496      -12.9103830200
 H        -2.6828715542       -1.3418308914      -13.0611871848
 H        -6.4244957584       -3.6828874617      -10.8028678601
 H        -6.2615988447       -2.3279742325      -11.8868576469
 H        -7.3592978182       -1.2692114484      -10.0342147786
 H        -5.7745706109       -1.0929743792       -9.3795922228
 H        -8.3013407642       -4.5313862509       -6.4702344678
 H        -8.4361654736       -3.9269155406       -4.8243436653
 H        -5.7490117764       -5.1510366334       -5.5542628245
 H        -6.9446677474       -6.2773414781       -5.9697232786
 H        -4.1926148561       -9.1453135857       -3.5033446654
 H        -3.1895362624       -8.1708149277       -2.6372390469
 H        -1.8618105288       -8.7283701661       -4.4543283821
 H        -2.2592410827       -6.8557651011       -4.2741686086
 H        -4.3984596854       -5.6891662240       -7.3541118335
 H        -3.6924027728       -5.5012518849       -8.9536882631
 H        -4.4800754272       -3.5169185261       -7.8612011566
 H        -2.6590485244       -3.5748786067       -8.2397370569
 H        -3.1928554793       -0.0297097849       -6.6298152283
 H        -1.8095985439        0.0507277584       -5.6651877556
 H        -4.6018008183        0.6336855113       -4.5508052507
 H        -3.6722205454        2.0233071461       -5.2046080136
 H        -1.7789781322        0.4531099729       -0.1385960980
 H        -2.1194427495       -0.4395719284       -1.3907784885
 H        -3.5539394955       -0.6116607083        1.4631881293
 H        -2.3839715708       -1.8240074257        1.1261969297
 H        -8.2870918342       -0.4330404796       -0.0412578617
 H        -8.2854689557       -2.0380747993        0.9540081254
 H        -9.2047627616       -3.2415077821       -1.0552813274
 H        -8.9203579521       -1.7672012055       -1.9477722884
 H       -11.4467910568        1.5017189084       -0.7686126306
 H       -12.7919582124        0.6158569883       -0.2270805199
 H       -12.9929391790        1.5873438848       -1.6460816962
 H       -10.7723966215       -1.9695917736       -3.3924661344
 H       -12.5089213461       -2.3697770304       -3.6479407188
 H       -11.5892433878       -3.4719240063       -2.6913125770
 H       -12.8737850808       -2.8376879163       -0.2763075834
 H       -13.8596284837       -2.2171484430       -1.5402427407
 H       -13.2201346740       -1.2738436612       -0.0097998130
 H        -6.3349352629       -4.3833174841        1.4401357031
 H        -4.5925255348       -4.3002638093        1.2467510264
 H        -5.5637321965       -4.3897993917       -0.1640709234
 H        -6.8420853725       -1.9887426179        2.3278306432
 H        -6.0486959464       -0.6992464683        1.8308682566
 H        -5.1513372026       -2.1743878765        2.6197858332
 H        -1.4368627975        2.6580038531       -1.6475507234
 H        -2.9915501717        3.2029076221       -0.7793498328
 H        -2.6301773466        3.7499417222       -2.4733507291
 H        -5.2493342855        2.8289981656       -1.6317485998
 H        -5.6394108610        1.6502230310       -2.9237427884
 H        -4.7368772152        3.1042306993       -3.2824527420
 H        -0.7330912281       -3.8019653055       -4.4895631327
 H        -2.3022607750       -4.0670020071       -3.7146282384
 H        -1.2583024564       -2.6959118655       -3.3974324041
 H        -0.5651154850       -3.2457594742       -6.7180329348
 H        -0.3714868250       -1.6713968455       -5.9908315102
 H        -1.5079232648       -1.8173329960       -7.2997133698
 H        -0.4370383290       -7.9901915088       -6.1974718292
 H        -0.3900758442       -8.1800015530       -7.8581882148
 H        -1.1337038461       -9.4531382129       -6.6729674171
 H        -4.3039086399       -8.0685031485       -8.3801711224
 H        -3.3427102839       -9.5921498895       -8.1322371146
 H        -2.7747750829       -8.4601831971       -9.3123374165
 H        -6.2659112365       -8.4182782136       -1.6856609165
 H        -7.8156066213       -7.5523582880       -1.8474790742
 H        -6.4976859746       -6.6140433129       -1.2402916134
 H        -7.8283896772       -8.6184691301       -4.0850653495
 H        -6.2511838366       -9.2607323121       -3.6768161425
 H        -6.4620278202       -8.5065756761       -5.2952465571
 H        -7.2469782761        0.2199707041       -7.3564600420
 H        -5.7741911619       -0.3373973368       -6.8108466861
 H        -7.0403516239       -0.3514822277       -5.7891656230
 H        -9.4473424661       -2.8306138047       -7.6460229079
 H        -9.2258511502       -1.0144818151       -7.4541156220
 H        -9.2326611776       -2.2715746961       -6.0471279885
 H        -4.4141171868       -5.6575441323      -12.0708461369
 H        -4.9506752031       -5.1603484862      -13.5108474556
 H        -5.8854040360       -4.8450453949      -12.1506067668
 H        -1.9803389710       -3.2070509171      -12.4842573469
 H        -2.3897569911       -4.6591836976      -13.2103916410
 H        -2.6165914876       -4.6315017587      -11.3875322982
 H        -0.0935425752        1.3140983772      -16.3947976988
 H        -1.6056673822        2.1744185175      -16.6619688689
 H        -0.6420804136        1.5032788430      -17.9418280637
 H        -3.7826199745       -0.5035768589      -17.5030198671
 H        -3.0452701513        0.7324407928      -18.7107028237
 H        -3.7671714631        1.2925586271      -17.1628945612
 H         0.7954243907       -2.0777647258      -23.4318182543
 H        -0.2800859265       -0.9220175328      -22.6143752500
 H        -0.1017665861       -2.5504196481      -21.8829145060
 H         3.0459558022       -2.7369255863      -22.3366085254
 H         2.1398414904       -3.2721827770      -20.8492566579
 H         3.4862362259       -2.1031020662      -20.7482498427
 H         6.5396382572        3.4585772994      -23.4402867125
 H         7.1194693703        2.7550966915      -21.7408828614
 H         6.9807639393        4.4970854556      -22.1106110421
 H         5.4924780603        5.4470253189      -20.4048620377
 H         6.1032345318        4.1936784333      -19.5842818289
 H         4.3403463079        4.3637858538      -19.6735871962
 H        -3.0331471968        5.6728312294      -23.2179217077
 H        -2.2786789952        4.0682089758      -22.7366512995
 H        -1.8729673276        4.7606237176      -24.2397261604
 H         0.3373129445        7.3179652123      -24.0202439440
 H        -1.3247410609        7.3013714197      -24.4923965766
 H        -0.3463983494        5.9788545041      -24.9999527970
 Na       -5.2523889617       -3.5050923897       -3.0842118205
 Na        1.0747594085        2.2297649955      -20.8282718055
