232

 C        -2.3777323494        6.7924548949      -20.8931149200
 C        -1.0466169438        6.9222048453      -21.7065126094
 O        -0.0727070021        7.5364964869      -21.3751375617
 C        -0.9779054472        5.9835973985      -22.9539335940
 C         0.2942069535        5.0984863848      -22.5160415491
 O         0.0651759259        4.0933368765      -21.8247245034
 C         1.7430461232        5.5460730769      -22.8117061874
 C         2.8419241125        4.8984962994      -21.9151342456
 C         4.1885453862        4.6116871031      -22.6072709607
 O         4.3696180236        4.8210114270      -23.7840226794
 C         5.1748862230        3.7713232620      -21.6287126537
 C         4.3634500326        2.4340606412      -21.4739045383
 O         3.6467104583        2.2771249179      -20.4766253472
 C         4.2623433977        1.3950734370      -22.6769780858
 C         3.7876986823        0.0428795732      -22.2861749982
 C         2.2612938191       -0.1148893114      -22.0914584283
 O         1.4310427591        0.6981142545      -22.6045276438
 C         1.6135289756       -1.3734722546      -21.4219000073
 C         1.0337356763       -0.9165057315      -20.0373592789
 O         0.8982469253        0.1872614226      -19.6234826623
 C         0.7383759175       -2.0739027772      -19.1162379735
 C         0.1580803328       -1.6506399056      -17.7686663971
 C        -1.3611261485       -1.1195142484      -17.9766683363
 O        -1.8656033998       -1.4105564053      -19.0221965058
 C        -1.9460649776       -0.0442201854      -16.9540259135
 C        -2.1298230058       -0.6479433652      -15.5227207323
 O        -1.2970428988       -1.2779159235      -14.9332889762
 C        -3.5792798965       -0.5576135545      -15.0089177756
 C        -3.8659113666       -1.2305918576      -13.5396665346
 C        -4.3319293081       -2.7060676479      -13.6345789509
 O        -4.9251146012       -3.0350979146      -14.6350946166
 C        -4.0950251954       -3.6415081082      -12.4337707676
 C        -4.5290599417       -2.9052194624      -11.1484971552
 O        -3.7708566211       -2.2313358037      -10.4603849227
 C        -6.0650942644       -2.6547202500      -10.8539330070
 C        -6.3735626308       -1.7836925746       -9.6353457022
 C        -6.9145435036       -2.6741038270       -8.5077388989
 O        -6.8540003326       -3.8927817497       -8.5916305693
 C        -7.4699766031       -2.0801387031       -7.0408547717
 C        -7.0061865516       -2.9775651738       -5.7999138510
 O        -6.2276376804       -2.4290170192       -5.0121989196
 C        -7.5970759419       -4.4008883367       -5.7306508793
 C        -6.7524860508       -5.6450187418       -5.2612905992
 C        -6.8765722551       -6.0197981242       -3.8553810000
 O        -7.5374902268       -5.3607763647       -3.0330702120
 C        -6.1445844714       -7.3046018088       -3.3901235729
 C        -4.5725637912       -6.9532389640       -3.3942934027
 O        -4.1436220556       -5.7963937864       -3.3010705731
 C        -3.5671130063       -8.1690414135       -3.3887854160
 C        -2.6191346807       -8.0439890510       -4.6261421535
 C        -3.2439989686       -7.8202800600       -5.9872080256
 O        -4.4143988928       -7.4843223126       -5.9703444390
 C        -2.3623425235       -7.7103911931       -7.2988251669
 C        -2.3228732125       -6.1425162006       -7.4268479683
 O        -1.3666790262       -5.5023745091       -7.0605294149
 C        -3.6171295131       -5.4466053305       -7.9682073100
 C        -3.4264722421       -3.8526405609       -7.5725332936
 C        -3.2460727390       -3.7901486277       -6.0125827359
 O        -3.9505545660       -4.4408963781       -5.2615939094
 C        -2.2608119425       -2.7205619524       -5.4786689397
 C        -3.1234616787       -1.5090276938       -4.8818280690
 O        -3.8359558891       -1.7532507021       -3.9876681844
 C        -2.8920152790       -0.0427768266       -5.4230100693
 C        -3.6334827728        0.9763849624       -4.6202319507
 C        -2.8314619444        1.2116957975       -3.2578852052
 O        -1.6774882061        0.8793367552       -3.0992041167
 C        -3.4805002189        1.9730387054       -1.9906412225
 C        -3.7356596659        0.8570021141       -0.8756868206
 O        -4.8563692311        0.4397654302       -0.7111711424
 C        -2.6137877392        0.0086098183       -0.2791484482
 C        -3.2447953357       -1.0618689975        0.5500679720
 C        -4.2701921211       -2.0564994930       -0.1142662211
 O        -3.9649211537       -2.5071379813       -1.1989084172
 C        -5.6616542626       -2.5053875246        0.5196849626
 C        -6.7072650823       -2.0142059795       -0.4854479339
 O        -6.5391331768       -2.1566329737       -1.6773189876
 C        -8.0725339958       -1.6999723283        0.0962568034
 C        -9.2287622183       -2.0585656104       -0.8904106600
 C       -10.5243343573       -1.4633072622       -0.4614710746
 O       -10.6945369617       -0.8609767120        0.5542011544
 C       -11.7979561027       -1.5449773727       -1.5076761082
 C       -11.9702582947       -0.1225763351       -2.0577290180
 O       -11.4673535045        0.1182746037       -3.1265398005
 C       -12.3841066231        1.0142589396       -1.1869484799
 C       -11.5826890300       -2.5966716356       -2.6167942231
 C       -13.0203642722       -2.0897189495       -0.6994383878
 C        -5.8512238825       -4.0969420492        0.6621971985
 C        -5.7242747652       -1.8080100587        1.8983500235
 C        -2.4769769121        3.0567633021       -1.5043396352
 C        -4.8393930993        2.6432164353       -2.2870187993
 C        -1.5348117322       -3.3617043607       -4.2180009603
 C        -1.2132522084       -2.2702062416       -6.4527334066
 C        -0.9762781466       -8.3247683781       -7.2234229243
 C        -3.1544452329       -8.3330556277       -8.4273079329
 C        -6.5502055232       -7.7041841040       -2.0294711553
 C        -6.6202435373       -8.3927511136       -4.3898826103
 C        -6.9104098178       -0.6902838413       -6.9360599021
 C        -9.0104292266       -2.0048521913       -7.1003630628
 C        -4.9215690745       -4.9115263970      -12.6707367410
 C        -2.6011924635       -3.9512995185      -12.3339564502
 C        -0.8067012857        1.0037707497      -16.7345296326
 C        -3.2220801286        0.5853565236      -17.6078531484
 C         0.4011914670       -1.7762522253      -22.3267188042
 C         2.6008399152       -2.5973565649      -21.3463235053
 C         6.5571257331        3.4991289445      -22.3723550723
 C         5.3455290009        4.4740346796      -20.3402522024
 C        -2.1245783149        4.9830333946      -23.2350665844
 C        -0.7109908134        6.9885448044      -24.1343366543
 H        -2.3415485556        7.3027328235      -19.9323796233
 H        -2.7905937114        5.7813854179      -20.7918220073
 H        -3.1911401278        7.2277229245      -21.4910029698
 H         1.8242541554        6.5808698574      -22.6859343437
 H         2.0406437890        5.2878103811      -23.8822601101
 H         2.3704469847        3.8880684719      -21.6613115298
 H         3.0489022325        5.2151603943      -20.8853593695
 H         5.2280473623        1.5047000700      -23.3469177082
 H         3.6938716487        2.0133808357      -23.3309016609
 H         4.2681847858       -0.4258716401      -21.3783783136
 H         3.9931214218       -0.5442894810      -23.2382014544
 H         1.6772986662       -2.6325085529      -19.0225304733
 H        -0.0852120003       -2.6146481266      -19.5804930491
 H         0.7051089631       -0.8452087039      -17.2991234608
 H         0.0909979301       -2.4833885492      -17.0095535562
 H        -4.1508428925       -1.0195321186      -15.8161800966
 H        -3.6659319136        0.5589469125      -14.9022006475
 H        -4.7633473107       -0.8425011122      -13.0131438441
 H        -3.0007747893       -1.0609826721      -12.9267217381
 H        -6.6145043191       -3.5261337949      -10.7765236089
 H        -6.4465589569       -2.2343629751      -11.7315607395
 H        -7.1633455502       -1.1003094809       -9.9525938966
 H        -5.3917005416       -1.1924262923       -9.3560151366
 H        -7.8077812401       -4.6692633780       -6.8078025518
 H        -8.6232663222       -4.2234330635       -5.3680144936
 H        -5.6890443043       -5.3446623681       -5.4648859771
 H        -6.8012853568       -6.5474463923       -5.8110241829
 H        -4.1646110675       -9.0872750452       -3.3213077250
 H        -2.9826276602       -8.1927122168       -2.4256836060
 H        -1.9816224603       -8.8709034897       -4.5515008064
 H        -2.0488591610       -7.1470704726       -4.5964048475
 H        -4.4802896614       -5.7763914482       -7.3757303948
 H        -3.8099923245       -5.5146599008       -9.0473852306
 H        -4.4045061140       -3.4240852110       -7.7128872717
 H        -2.7598664268       -3.4608854037       -8.2401823941
 H        -3.1407208010        0.0083489138       -6.5438893398
 H        -1.7853777624       -0.0403261197       -5.4092170788
 H        -4.6388308438        0.6371955352       -4.3363047540
 H        -3.6848894256        1.9679012895       -4.9852498129
 H        -1.7516462288        0.4326032503        0.2314074134
 H        -1.9751527876       -0.4560619393       -1.0855236182
 H        -3.6768710083       -0.6070774367        1.4183220306
 H        -2.3714621677       -1.5273081077        1.0161133481
 H        -8.0280774614       -0.6618322038        0.3544479321
 H        -8.2158946389       -2.3002709120        1.0075820785
 H        -9.3623150791       -3.2087491245       -0.7605116365
 H        -9.0152005748       -1.8140731040       -1.9710332825
 H       -11.7528018715        1.8535323599       -1.5333937541
 H       -12.2460529986        0.8786986843       -0.1352020026
 H       -13.5049172681        1.2110966165       -1.3702674965
 H       -10.6352588289       -2.4664973235       -3.1651311429
 H       -12.2539519948       -2.5846987311       -3.3791554784
 H       -11.6162856183       -3.5694427735       -2.0694578925
 H       -12.7370966204       -3.0601443022       -0.2725204721
 H       -13.7925466224       -2.3446578556       -1.4560456782
 H       -13.1906999804       -1.5555242435        0.1869526461
 H        -6.9496382419       -4.2831608331        0.9068117280
 H        -5.3403127826       -4.3593472002        1.5781832047
 H        -5.4474945373       -4.7186929246       -0.1441680637
 H        -6.5056937506       -2.0423528843        2.6220229069
 H        -5.7887493944       -0.7268238941        1.7208129950
 H        -4.8247185659       -2.0260565388        2.4016303317
 H        -1.6107403188        2.5132927274       -1.2952554175
 H        -2.8396034653        3.6923834653       -0.6464140787
 H        -2.1683462993        3.5407472317       -2.3991085363
 H        -5.2775145226        3.2731224305       -1.4161746134
 H        -5.5554413333        1.8153169264       -2.4754433080
 H        -4.8076990624        3.2885355073       -3.2053316011
 H        -0.6377383549       -3.9515512535       -4.5314742382
 H        -2.2484610913       -3.8898070199       -3.5932659674
 H        -1.0361685977       -2.5573028152       -3.5547989173
 H        -0.7226174598       -3.1389561835       -6.8941484648
 H        -0.3999322934       -1.6954633573       -5.9890482127
 H        -1.5579067264       -1.6582182902       -7.3139885097
 H        -0.1708815870       -7.6342569971       -6.9493474311
 H        -0.6814687004       -8.5314040168       -8.2215907226
 H        -0.8860410942       -9.0477559043       -6.4911117604
 H        -4.2344653375       -8.2148321966       -8.2703480633
 H        -2.8754782936       -9.3540364100       -8.5721959024
 H        -2.8366872818       -7.9430868883       -9.3841310737
 H        -6.0849006057       -8.6195473791       -1.7467157747
 H        -7.6058006228       -7.8764697232       -2.0028851979
 H        -6.3236627201       -6.9627345001       -1.3311479765
 H        -7.6606685504       -8.3085126341       -4.3266903513
 H        -6.4302409967       -9.3449512535       -4.0458821300
 H        -6.2800283869       -8.2850650720       -5.4231776779
 H        -7.2168474334       -0.0490843069       -7.7964121020
 H        -5.8721278567       -0.5283393917       -6.8607268842
 H        -7.1610260892       -0.1995622552       -5.9253204246
 H        -9.4351494560       -2.9547316408       -7.4113686034
 H        -9.3775271937       -1.2199390966       -7.7465138357
 H        -9.3528797573       -1.9454136259       -6.0959170732
 H        -4.6500249777       -5.7604376621      -11.9791551634
 H        -4.8780050470       -5.4201631093      -13.6940746537
 H        -5.9764140057       -4.7528389668      -12.5879984114
 H        -2.0141153672       -3.0193381809      -12.6716300031
 H        -2.3045017494       -4.7537417195      -12.9949799466
 H        -2.4946141552       -4.1778381672      -11.3230643280
 H         0.1081764975        0.5806076960      -16.6416466336
 H        -0.8789739263        1.6470192760      -15.8495356946
 H        -0.6063809757        1.7369225302      -17.5395632404
 H        -3.9450415851       -0.1960989118      -17.7894702837
 H        -2.8188571533        0.9679881332      -18.5067867063
 H        -3.5440435160        1.3744678933      -16.9606725525
 H         0.6155724829       -1.6163539862      -23.3140242643
 H        -0.5104335681       -1.1885090906      -22.1744595649
 H         0.1470042999       -2.8364540003      -22.1011902866
 H         3.0897486300       -2.6249005197      -22.3476751560
 H         2.0366874582       -3.4923326525      -21.1464699478
 H         3.3998604535       -2.3556541752      -20.6215670285
 H         6.3724979888        3.5420124926      -23.4194832685
 H         6.9954936299        2.5904284579      -22.1175696189
 H         7.3263119523        4.2923678524      -22.1897492623
 H         5.5552337963        5.5514059827      -20.3737180044
 H         6.2829394859        4.1837707296      -19.8470992068
 H         4.4281671136        4.3203275443      -19.6795472898
 H        -2.9767730010        5.5443885573      -23.4669580239
 H        -2.3916227462        4.3880785601      -22.3383641519
 H        -1.7715013531        4.2096506368      -23.9242209305
 H         0.1415127119        7.7257807354      -23.9083872450
 H        -1.6089852121        7.6132762927      -24.3614488876
 H        -0.4979462431        6.4658539938      -25.0534968017
 Na       -5.2096212489       -3.5437013964       -3.1088271924
 Na        0.9670867992        2.2938023133      -20.6450086946
