232

 C        -2.3501558952        6.9106342096      -20.6983619023
 C        -1.1605332299        6.9998747125      -21.5943434934
 O        -0.2463862670        7.7578686782      -21.3211057830
 C        -0.9788516638        5.9879813855      -22.9347285115
 C         0.2727615004        5.0349388071      -22.4942916430
 O         0.1352525943        4.1791072240      -21.6571427312
 C         1.6841877943        5.4752427009      -22.9588916320
 C         2.7422439838        4.9598149416      -22.0077948421
 C         4.0534320414        4.5936992138      -22.6341842232
 O         4.3619403653        4.8574656933      -23.7900667067
 C         5.0459893231        3.6816355460      -21.7551431296
 C         4.2146543190        2.4522360087      -21.5003378158
 O         3.4599097752        2.3666595555      -20.5612286689
 C         4.0786882691        1.4912678557      -22.7924395064
 C         3.6885065693        0.0905814689      -22.3837043877
 C         2.1304058913       -0.0206969610      -22.0882306000
 O         1.4190577807        0.8325428638      -22.4296220224
 C         1.6096590841       -1.4504545886      -21.4476781826
 C         1.2054899169       -1.1096960501      -19.9865725918
 O         1.1719680874        0.0624212532      -19.5859480752
 C         0.8113640498       -2.2175523052      -19.0048553738
 C         0.0808776174       -1.7983226573      -17.7649516493
 C        -1.2577742370       -1.0334542594      -18.0983117912
 O        -1.8781775634       -1.1578212126      -19.1030400238
 C        -1.7767949690       -0.0381827902      -16.9255963250
 C        -2.2090147393       -0.9337644118      -15.7159249933
 O        -1.4086919761       -1.6703367757      -15.1644561453
 C        -3.6214052392       -0.8151316375      -15.1836509924
 C        -3.7641285722       -1.3014841459      -13.8275455520
 C        -4.4548505589       -2.6398649544      -13.6829775679
 O        -5.2053771183       -3.0166498353      -14.5438585900
 C        -4.2122261134       -3.5507493015      -12.4323447298
 C        -4.7042401708       -2.7408939461      -11.2095610899
 O        -3.8722780487       -2.2926943459      -10.4258439310
 C        -6.1585168070       -2.6084063978      -10.8753444748
 C        -6.4073724300       -1.8849134663       -9.5168024091
 C        -6.9649997558       -2.8339491386       -8.4630725918
 O        -7.0610875195       -4.0632937654       -8.6220426517
 C        -7.4474710856       -2.0775594029       -7.2380382132
 C        -7.2108679238       -3.0401497936       -5.8847764728
 O        -6.5769152557       -2.6172615956       -4.9587511818
 C        -7.8777148020       -4.4865185658       -5.8283266032
 C        -6.8471780023       -5.5255499017       -5.2921893933
 C        -6.8435499759       -6.0546537302       -3.8197830037
 O        -7.2652126299       -5.2607095331       -3.0219121437
 C        -6.0911742366       -7.3622568991       -3.4464838794
 C        -4.5117224427       -7.0566585822       -3.3514204394
 O        -4.2418148140       -5.9555512681       -2.9407940579
 C        -3.5062926233       -8.2705353864       -3.5740439386
 C        -2.4720762651       -8.1509693164       -4.7210495609
 C        -3.1628434609       -7.8231014260       -6.0212752084
 O        -4.3413479660       -7.5599552013       -6.0587650432
 C        -2.3398572235       -7.5972009296       -7.3397139864
 C        -2.2550114392       -5.9808313604       -7.4749083882
 O        -1.2429349503       -5.4926011193       -7.0107472218
 C        -3.4599765597       -5.2608893819       -8.0672673271
 C        -3.4034429371       -3.7482933552       -7.7009735692
 C        -3.2363245327       -3.6861652445       -6.1546064637
 O        -3.8864518172       -4.3475929046       -5.3633130327
 C        -2.1606267147       -2.6128982174       -5.4707815429
 C        -3.0016897314       -1.4439515240       -4.7581137622
 O        -3.8148668518       -1.7326029218       -3.8625319573
 C        -2.9246212136        0.0373736781       -5.2712058391
 C        -3.6911459670        0.9596804041       -4.3354174494
 C        -2.7672624587        1.3466645219       -3.0728925299
 O        -1.6014308634        0.9806727502       -2.9882078819
 C        -3.4552882970        1.9897924758       -1.9064481023
 C        -3.9178990767        0.7770900958       -1.0101165657
 O        -5.0947875355        0.4431631975       -0.9653741748
 C        -2.7676914619        0.0227190458       -0.3126844086
 C        -3.1599426814       -1.2439193500        0.6053086158
 C        -4.1986804989       -2.0719275390       -0.1810961626
 O        -3.7771247994       -2.5438091034       -1.2174462274
 C        -5.6116567053       -2.4183716231        0.5016219128
 C        -6.7457244952       -2.0197996730       -0.4778611753
 O        -6.6449696670       -2.2929315095       -1.6536562555
 C        -8.1025798812       -1.6819589405        0.1396819271
 C        -9.2266117063       -1.9286897169       -0.8909202699
 C       -10.5743200755       -1.3494990055       -0.4012969692
 O       -10.5755960684       -0.6372203686        0.6046016949
 C       -11.7642531999       -1.5658692853       -1.3399262914
 C       -11.9023972758       -0.2581330950       -2.0173645831
 O       -11.4260660823       -0.0331575106       -3.1234905863
 C       -12.6022886687        0.8214765747       -1.2523900722
 C       -11.4287550430       -2.6504707746       -2.3472502318
 C       -13.0367258118       -1.8134466862       -0.4927610091
 C        -5.5247215737       -3.9555520421        0.4703209228
 C        -5.8681114741       -1.8958007300        1.9127348021
 C        -2.4968703163        2.8932986988       -1.1789668629
 C        -4.7191348505        2.8605253085       -2.3320710595
 C        -1.4626315336       -3.4431976023       -4.3812954379
 C        -1.1820977044       -2.0807432651       -6.5168899561
 C        -0.9565148392       -8.1846508932       -7.2487037986
 C        -3.1207165804       -8.2267815170       -8.4609912131
 C        -6.2962048121       -7.6761857746       -1.8992505738
 C        -6.4082050836       -8.6726790210       -4.2987514735
 C        -6.9114773649       -0.6997005248       -6.9186133998
 C        -8.9747933292       -2.0220516137       -7.3589104444
 C        -4.9580370911       -4.9019649374      -12.6247370486
 C        -2.6661428533       -3.8380359767      -12.2366974166
 C        -0.8434795864        1.0670556922      -16.3302232190
 C        -3.0835067480        0.7602993509      -17.5859166455
 C         0.2643373953       -1.8072947763      -22.1272026684
 C         2.6784485344       -2.5642298669      -21.4538157462
 C         6.2881925938        3.5727588421      -22.5729149911
 C         5.4678048909        4.3710307447      -20.4187556194
 C        -2.1734918360        5.1078465224      -23.2854143939
 C        -0.5747289780        6.8826103449      -24.2259377412
 H        -2.0883213808        7.3678609889      -19.7786190704
 H        -2.6422180055        5.8609494595      -20.6438185623
 H        -3.2488360820        7.3802473664      -21.0360239388
 H         1.8597400988        6.6191818960      -22.9082473455
 H         1.8084728064        5.1287541849      -23.9384132632
 H         2.3407555447        4.1625373988      -21.4617896594
 H         2.8940834488        5.6310445679      -21.1672009252
 H         4.9390716735        1.6390973431      -23.2849945835
 H         3.3770703066        1.9065805742      -23.5775523519
 H         4.1166606210       -0.3346060813      -21.4935179353
 H         3.8852937933       -0.5166545438      -23.2474806738
 H         1.8135607999       -2.5656994283      -18.6897214794
 H         0.1623152269       -3.0410720237      -19.3887057042
 H         0.5486279885       -1.1056193987      -17.0531063608
 H        -0.1665267921       -2.6828518627      -17.2399720839
 H        -4.2559050737       -1.5064039962      -15.8072445862
 H        -3.8531236266        0.2391439467      -15.2385548114
 H        -4.4148345589       -0.6037532814      -13.2513848024
 H        -2.7908452765       -1.3427356179      -13.2691031753
 H        -6.6569352447       -3.6355337437      -10.9402446812
 H        -6.6212899007       -2.0572906605      -11.7655005433
 H        -7.1795903599       -1.1107602528       -9.7458655723
 H        -5.5037425411       -1.4678750895       -9.2105701702
 H        -8.2489270935       -4.8534688855       -6.7353096837
 H        -8.7203547729       -4.4911674785       -5.1592493159
 H        -5.8561608359       -5.1315364917       -5.2701895537
 H        -6.7297599697       -6.3904940649       -5.9828516911
 H        -4.1104453887       -9.1869608493       -3.5974513573
 H        -2.9643629891       -8.3381034319       -2.6404080618
 H        -1.9201414661       -9.1605612743       -4.7662700499
 H        -1.6395956148       -7.3477960418       -4.5728244568
 H        -4.3502181231       -5.6379929770       -7.5460984874
 H        -3.6135460771       -5.3085978022       -9.1539339972
 H        -4.3759183714       -3.3248101112       -8.0193305992
 H        -2.5675334494       -3.2910992627       -8.3177797598
 H        -3.3495360568       -0.0390487866       -6.2352848167
 H        -1.9052381743        0.3640568124       -5.4349726832
 H        -4.5571832801        0.5592117167       -3.7710805875
 H        -3.9532572280        1.8981558707       -4.9046368117
 H        -2.2350013780        0.8289557531        0.2151817367
 H        -1.9420139834       -0.2827181799       -0.9181668701
 H        -3.3674733665       -1.0408369656        1.6870612241
 H        -2.2793872772       -1.9006068975        0.6564554111
 H        -8.1724619418       -0.6826318389        0.5820208440
 H        -8.2230975649       -2.4251699570        0.8999660811
 H        -9.1990063676       -2.9300083428       -1.1036985292
 H        -9.0337909446       -1.3828281753       -1.7736512802
 H       -12.6590765255        1.7405596298       -1.8413294978
 H       -11.8994035264        1.0200817709       -0.3879182844
 H       -13.5013070518        0.5364764871       -0.8318207807
 H       -10.8198181110       -2.2684987458       -3.1791807679
 H       -12.4038627586       -2.8120805432       -2.9298095929
 H       -10.9551952468       -3.5247290856       -1.9189281368
 H       -13.1567883132       -2.8556055560       -0.2028827085
 H       -13.8546325814       -1.5732393004       -1.1211516343
 H       -12.8665713554       -1.2376285432        0.4347147293
 H        -6.4577048896       -4.3647489523        0.7344918906
 H        -4.8104620912       -4.2681060130        1.2588679316
 H        -5.1212442691       -4.3023759827       -0.4853605581
 H        -6.7699071829       -2.4802728041        2.2144914949
 H        -6.0305985576       -0.8513474922        2.1346126213
 H        -5.1025379505       -2.2842072720        2.6874455123
 H        -1.5601971881        2.3295835122       -1.0110170292
 H        -2.9753701514        3.0269331888       -0.2257473509
 H        -2.2216865675        3.7855219583       -1.6993339746
 H        -5.0555729184        3.3996248755       -1.5307138562
 H        -5.5596743968        2.2504051105       -2.5894995353
 H        -4.4287073668        3.5995172425       -3.0499406249
 H        -1.3189440197       -4.4533177332       -4.7826229741
 H        -2.0900539680       -3.4291632751       -3.4811307506
 H        -0.5105110959       -3.1220678788       -4.1115485580
 H        -0.6400322496       -2.8661401085       -7.0115336157
 H        -0.4649451499       -1.4415628855       -6.0858122041
 H        -1.6731853207       -1.6040226129       -7.3327386759
 H        -0.3069410178       -7.7057664278       -6.5471168315
 H        -0.4289529960       -8.1029005299       -8.2021661242
 H        -0.9915472802       -9.2218485248       -6.8025130628
 H        -4.1096035874       -7.8727865599       -8.4017378635
 H        -3.1310171144       -9.3082613002       -8.3636936374
 H        -2.6976142856       -8.1114432059       -9.4377908893
 H        -5.6209348407       -8.4572228783       -1.4977006108
 H        -7.3209410859       -8.0663471764       -1.7192418380
 H        -6.0824154942       -6.7348946380       -1.3237347201
 H        -7.5326583157       -8.7953151375       -4.5034202380
 H        -6.1245086380       -9.6124942977       -3.6617984648
 H        -5.8214955945       -8.6290945819       -5.1959443946
 H        -7.0075351083       -0.0041922142       -7.7384128060
 H        -5.7821016878       -0.6760957803       -6.7622487111
 H        -7.1982926421       -0.2671830045       -6.0235903171
 H        -9.4661680612       -2.9727370226       -7.1810582932
 H        -9.1250589763       -1.8041458395       -8.3944540146
 H        -9.4547666539       -1.2605268532       -6.7483494264
 H        -5.1143380489       -5.3550896546      -11.6559612238
 H        -4.5101281787       -5.7097142642      -13.1497637765
 H        -5.9472075057       -4.7993668052      -13.1261608706
 H        -2.2365027801       -2.8706036684      -12.0590586552
 H        -2.2189717799       -4.2384742290      -13.1804962506
 H        -2.5152283861       -4.4576253200      -11.3180506665
 H        -0.2275769696        0.7957952013      -15.3602191184
 H        -1.3766200292        1.9492940724      -15.9905570170
 H        -0.0701718675        1.4367927897      -16.9806423995
 H        -3.7587233338       -0.0107390709      -17.9860601775
 H        -2.6454151426        1.2938518664      -18.4533574260
 H        -3.4836476770        1.4012644055      -16.7905574264
 H         0.3208586509       -2.1164297030      -23.2170306601
 H        -0.3659175495       -0.9584317746      -22.1685280907
 H        -0.2968528253       -2.5209945132      -21.5350448100
 H         3.2416754252       -2.5657926831      -22.3416250681
 H         2.0736994775       -3.4836173367      -21.4200980980
 H         3.3401297977       -2.4643396573      -20.6256432005
 H         6.1894569667        3.1397119627      -23.5618948511
 H         6.9814200606        2.8673660876      -22.0579857718
 H         6.7369676475        4.4936216128      -22.5918056693
 H         5.9473324636        5.3475071449      -20.5178512905
 H         6.2245896187        3.7832368915      -19.8460928635
 H         4.5973099285        4.5092077178      -19.8181798005
 H        -3.1490600330        5.6236195219      -23.4234746452
 H        -2.3334098133        4.4953629957      -22.3915870348
 H        -1.8369399635        4.3416152873      -23.9743214977
 H         0.0818745431        7.6482628046      -24.0293155079
 H        -1.4219189642        7.4903415206      -24.5826788347
 H        -0.2451048119        6.3222017249      -25.0903517714
 Na       -4.9764373196       -3.6369022590       -3.0744392226
 Na        1.2327457104        2.2354745239      -20.7909137852
