232

 C        -2.3628668104        6.8173241450      -20.7424583323
 C        -1.1183787551        7.0505512588      -21.6044239032
 O        -0.3542558447        8.0162238940      -21.5179361694
 C        -0.9157729794        6.0162996349      -22.7739952182
 C         0.2527611283        5.0776091510      -22.3448163948
 O        -0.0074245878        4.0695182893      -21.6350329201
 C         1.6245457202        5.3954282089      -22.8851311406
 C         2.8647340491        5.4615067404      -21.9066334810
 C         4.0378680655        4.7908564522      -22.6840716431
 O         4.1836807440        5.0043079561      -23.8365967317
 C         4.9732511770        3.6918745275      -21.9678716907
 C         4.2140080479        2.3941296118      -21.7575690885
 O         3.6379000074        2.3002341167      -20.6602054264
 C         3.9905898974        1.3201669907      -22.9133025219
 C         3.5835687300        0.0011510982      -22.3486172720
 C         2.1015950444       -0.1641585211      -22.0861063926
 O         1.2767458033        0.7381986126      -22.4738753707
 C         1.5279455051       -1.4138535365      -21.4122049176
 C         1.2604665133       -0.9931896400      -19.8219800764
 O         1.2917708775        0.1465458762      -19.4315175665
 C         0.9342241158       -2.1711026850      -18.9993409403
 C         0.2257780428       -1.7566279232      -17.6659022069
 C        -1.1030926312       -0.8494830714      -18.0529232102
 O        -1.5752724903       -0.8911054740      -19.2255776404
 C        -1.7384414780        0.0109759543      -16.9704183825
 C        -2.3444301776       -1.0416245130      -15.9911764188
 O        -1.6317990249       -1.9401462057      -15.6619033193
 C        -3.7910918917       -0.8546059846      -15.3054930914
 C        -3.7122963704       -1.4539606227      -13.8066292325
 C        -4.6410855221       -2.7344451349      -13.6435088101
 O        -5.4985562178       -3.0975387789      -14.4486856649
 C        -4.3026722821       -3.5770561668      -12.3703710731
 C        -4.7199910566       -2.7278133984      -11.1392179351
 O        -3.9487165557       -2.2635985768      -10.3515294721
 C        -6.2470639645       -2.5712571580      -10.8558727641
 C        -6.7143823018       -2.0035511958       -9.5019210257
 C        -7.1850665313       -3.0167441678       -8.4570089655
 O        -7.0958010395       -4.1854695504       -8.5905135371
 C        -7.6741855810       -2.3075831547       -7.1558195664
 C        -7.2933860586       -3.3011707052       -5.8208233862
 O        -6.5668078155       -2.8832782264       -4.9567166367
 C        -7.9237079961       -4.6556648490       -5.6072203713
 C        -6.8899018564       -5.8399301167       -5.3591101675
 C        -6.5101181184       -5.9653951775       -3.9088839463
 O        -6.9318182820       -5.1403282324       -3.1036696090
 C        -5.9726150947       -7.3540381738       -3.3346350573
 C        -4.4254614352       -7.1575963561       -3.2386476858
 O        -3.9174639096       -6.0713180944       -3.0113380253
 C        -3.4392521051       -8.3496756647       -3.5988715732
 C        -2.4730682887       -7.9688393186       -4.7063691291
 C        -3.1593027173       -7.6816824694       -6.0976655650
 O        -4.3743322619       -7.4520826761       -6.2062384085
 C        -2.3038747538       -7.4752357534       -7.3505277001
 C        -2.1044557482       -5.8971179691       -7.5014559848
 O        -1.1041840257       -5.4218657466       -7.0483644145
 C        -3.3215801693       -5.1327418892       -8.1438365271
 C        -3.2949920534       -3.6604789223       -7.7908167362
 C        -3.2086808659       -3.5224917044       -6.1581631293
 O        -4.0541906037       -3.9774340341       -5.4172680150
 C        -2.1237446881       -2.5043026994       -5.4856752938
 C        -2.9400943649       -1.4581485100       -4.6705691083
 O        -3.7766471631       -1.7190911955       -3.8384291364
 C        -2.8824551920        0.0307865167       -5.1187937053
 C        -3.6255832909        0.9628846542       -4.2048329759
 C        -2.7414112305        1.3276073283       -3.0289787735
 O        -1.5658773319        1.1483012135       -3.0253620534
 C        -3.4810177042        2.0274089503       -1.7591454807
 C        -3.9866661924        0.8047813917       -1.0227234926
 O        -5.1156441064        0.3122292979       -0.9845389572
 C        -2.8834467624        0.1175501546       -0.2083157100
 C        -3.3086899003       -1.0420760062        0.5756110520
 C        -4.0779881198       -2.1235061906       -0.1801802063
 O        -3.6819484458       -2.6102284802       -1.2444512463
 C        -5.4251875192       -2.7440241858        0.4750689084
 C        -6.6687035921       -2.3255148216       -0.6153991517
 O        -6.5805402102       -2.5218307718       -1.8022021787
 C        -7.8828572942       -1.5893056305       -0.0162656735
 C        -9.1172439270       -1.6546985955       -0.9154929551
 C       -10.5215645813       -1.2979084934       -0.3397718772
 O       -10.6717194787       -0.5852656004        0.6350260475
 C       -11.8641053031       -1.5409220889       -1.1827202514
 C       -12.0060656407       -0.2035496669       -2.0502561756
 O       -11.4368359071       -0.0636444491       -3.1233244169
 C       -12.7319277235        1.0305582012       -1.5475639791
 C       -11.8121190084       -2.7705598641       -2.0991963131
 C       -12.9328134409       -1.9017012468       -0.1755880463
 C        -5.3166638998       -4.2956071596        0.5996594558
 C        -5.6393294759       -2.0948683418        1.8514237795
 C        -2.4843058048        2.8527017042       -0.8193613506
 C        -4.5936914162        2.9715177284       -2.2573505240
 C        -1.3291885266       -3.3484781414       -4.5005091911
 C        -1.1415814932       -1.8451962830       -6.5274590322
 C        -0.8365180144       -8.1266136782       -7.2655000908
 C        -2.9892433212       -8.0995720240       -8.5858687848
 C        -6.5581600866       -7.4990565880       -1.8810034049
 C        -6.5778700808       -8.5669222049       -4.0770050133
 C        -6.8932588180       -1.0239575421       -6.7123911620
 C        -9.1953654563       -1.9802136198       -7.4782475309
 C        -5.0484328945       -4.9398943670      -12.3886101447
 C        -2.7016962115       -3.8414678333      -12.3450704509
 C        -0.6376961853        0.8947889430      -16.2787803767
 C        -2.8538006760        0.8945080276      -17.6622601751
 C         0.2301388101       -1.7903507928      -22.1336053124
 C         2.5425822388       -2.6578903282      -21.5529998673
 C         6.2806291042        3.4491091772      -22.7168644519
 C         5.2811885579        4.2740791677      -20.5443303123
 C        -2.2379343693        5.2130282126      -23.0047166882
 C        -0.6207389009        6.8384846342      -24.0493700443
 H        -2.4363032478        7.5660219338      -19.8942631844
 H        -2.6228031193        5.7791250851      -20.5491484161
 H        -3.2437329246        7.1859263502      -21.3472335796
 H         1.6414779355        6.3116550142      -23.3319761209
 H         1.8266252563        4.5890772214      -23.6906188669
 H         2.6372925298        4.9898291003      -20.8932979315
 H         3.0229821469        6.5153331984      -21.5661263342
 H         4.9094992076        1.4968964937      -23.5456182650
 H         3.2493790960        1.8107183845      -23.4956633256
 H         3.9545543457       -0.1239441533      -21.3184165691
 H         3.8854514291       -0.8866879568      -22.9536297703
 H         1.7781363429       -2.8384902391      -18.7346756655
 H         0.2643680680       -2.7235562680      -19.6417856467
 H         0.8730610496       -1.2261671042      -16.9788166459
 H        -0.1607443638       -2.6863899994      -17.1578480364
 H        -4.5904363257       -1.3244735104      -15.8490245351
 H        -3.9359760509        0.2426627252      -15.2191112907
 H        -3.9233946798       -0.6168180342      -13.1477888205
 H        -2.7506083093       -1.8352560600      -13.5316699251
 H        -6.5410477451       -3.6092453776      -10.8179664474
 H        -6.8234696269       -2.1913545198      -11.6882111543
 H        -7.4458083184       -1.3137568368       -9.7587538201
 H        -5.7574415516       -1.5369191379       -9.0427403330
 H        -8.5615815362       -5.0328939621       -6.4914585790
 H        -8.5793200034       -4.7226092095       -4.6951911971
 H        -5.9162916723       -5.8245699606       -5.9661957868
 H        -7.3296945551       -6.7974605738       -5.6012315816
 H        -4.0879329925       -9.1461967961       -3.9165567418
 H        -2.8932277329       -8.6335280936       -2.6862244886
 H        -1.6707203476       -8.6748459758       -4.7762800000
 H        -2.0092611071       -7.0699522423       -4.3978759772
 H        -4.2774687261       -5.4577596780       -7.7516659088
 H        -3.3135399049       -5.3119996721       -9.2082757548
 H        -4.0965013742       -3.0370845669       -8.2243017405
 H        -2.3123972781       -3.3278410193       -8.1438362561
 H        -3.3179906987        0.0523212628       -6.1640762955
 H        -1.8486276879        0.3651609209       -5.2194415674
 H        -4.5523551262        0.6670433615       -3.7809786398
 H        -3.7136181731        1.8735265835       -4.7720912008
 H        -2.2152835073        0.7667242207        0.3678029333
 H        -2.1799087849       -0.2153316905       -1.0081678269
 H        -3.9925414204       -0.6120015406        1.3195991057
 H        -2.5942639123       -1.6107991147        1.1828753218
 H        -7.6740945069       -0.4967395366       -0.0485083114
 H        -7.9773647719       -1.9521066435        1.0549156126
 H        -9.2205316769       -2.7080393444       -1.3850713645
 H        -8.9314476087       -0.9505690510       -1.7882475704
 H       -12.8980486012        1.6516808491       -2.4027256605
 H       -12.2503897764        1.5348241821       -0.7679173604
 H       -13.7516955814        0.7097271544       -1.1465626683
 H       -11.0265680056       -2.6636175866       -2.8424046490
 H       -12.7416594231       -2.8485448604       -2.6060528576
 H       -11.4346991417       -3.6224639134       -1.5100983809
 H       -12.6953026252       -2.9299370311        0.1050380972
 H       -13.8985620323       -1.9383618233       -0.7251653846
 H       -12.9294282648       -1.1768747844        0.6660697617
 H        -5.9236333004       -4.5970294307        1.4756782267
 H        -4.3005313768       -4.6362251310        0.6742707382
 H        -5.7476756901       -4.7468935483       -0.2903745149
 H        -6.5143691031       -2.4306556932        2.3866294279
 H        -5.6640110603       -0.9791996597        1.6735477795
 H        -4.8177004564       -2.1099948450        2.4714297019
 H        -1.4533402744        2.4846676052       -0.9801037087
 H        -2.7636200782        2.8472357271        0.2387213590
 H        -2.5409408962        3.9206850989       -1.2390986056
 H        -5.1223334811        3.4203799664       -1.3614710451
 H        -5.4059784714        2.4095319239       -2.7139332933
 H        -4.1166615555        3.8128748525       -2.7293305075
 H        -0.9014263982       -4.1737439901       -4.9828865134
 H        -1.9456877117       -3.6250739656       -3.6460192908
 H        -0.5494903580       -2.6883302519       -4.0637296751
 H        -0.6398694157       -2.6245932057       -7.1392163544
 H        -0.3608893110       -1.2847513560       -5.9245374202
 H        -1.5845344905       -1.2325843324       -7.3482911413
 H        -0.3067652640       -8.1540357689       -6.2786292044
 H        -0.1436140155       -7.6529931532       -8.0042451459
 H        -0.8881670642       -9.1801432609       -7.5390306049
 H        -3.9783267527       -7.6518705591       -8.9150990297
 H        -3.1590937152       -9.1790142375       -8.4543815476
 H        -2.2646428771       -8.0509708391       -9.4259434046
 H        -5.9873424798       -8.2551975439       -1.3188401686
 H        -7.5968775261       -7.8291641516       -1.8743416566
 H        -6.3628579214       -6.5692461935       -1.3569934104
 H        -7.6107589465       -8.5154231927       -3.8969899199
 H        -6.2024629273       -9.4674981396       -3.7371994759
 H        -6.3792380233       -8.4673504137       -5.1743795458
 H        -7.0404850419       -0.1823008602       -7.3772344765
 H        -5.8434975114       -1.1432004000       -6.7244768195
 H        -7.2507413117       -0.6107097115       -5.7122969531
 H        -9.7571540328       -2.9182171201       -7.6749098968
 H        -9.2584903463       -1.3141965863       -8.4102323837
 H        -9.6713201813       -1.4244354174       -6.6362424757
 H        -5.1585863667       -5.5206002118      -11.4980642403
 H        -4.4969802249       -5.6085380894      -13.0240940597
 H        -6.0060454355       -4.8428503443      -12.8971032506
 H        -2.1310404313       -3.2390483438      -11.6325999380
 H        -2.3026836060       -3.8813200542      -13.3237104143
 H        -2.6378802892       -4.8910524541      -11.9032855838
 H        -0.4096157687        0.5446228810      -15.3156977938
 H        -0.8879591839        1.9319438379      -16.0210388908
 H         0.3372186347        0.9702171409      -16.8613191058
 H        -3.6027551672        0.1907523979      -17.9754566176
 H        -2.4628142257        1.3426669766      -18.5594341498
 H        -3.1284726797        1.5471286052      -16.8548033120
 H         0.4132219871       -2.5444216751      -22.8833507142
 H        -0.3288680154       -0.9849256673      -22.7259486377
 H        -0.5494872113       -2.1732445155      -21.4789365741
 H         2.4847713805       -3.0412826587      -22.6067655170
 H         2.2382645991       -3.4701901814      -20.9475534401
 H         3.5851125033       -2.3474549578      -21.3288608576
 H         6.0136645864        2.7873668354      -23.5826437894
 H         7.0438852196        2.8164725484      -22.2272105802
 H         6.7241474613        4.4518502482      -23.0730891959
 H         5.9869995026        5.1372169216      -20.7710890979
 H         5.8146386179        3.5382142844      -19.9140872922
 H         4.4800297557        4.6885937974      -19.8968005703
 H        -3.1280793528        5.8539421324      -22.8887066293
 H        -2.4318348323        4.3643030024      -22.3520801925
 H        -2.2626434895        4.8259475515      -24.0348956842
 H         0.0145357522        7.7627470409      -23.8435650205
 H        -1.4005378087        7.3018740215      -24.5834187967
 H        -0.0785472007        6.2212100185      -24.8048919059
 Na       -5.0198029973       -3.6823772698       -3.1075890829
 Na        1.2554413618        2.2448147335      -20.7824115656
