232

 C        -2.2890685676        6.9636151293      -20.6317876244
 C        -1.1718189447        7.1541125383      -21.5992508393
 O        -0.4321995694        8.1080019830      -21.4973520917
 C        -0.9295233059        5.9909800886      -22.8107681581
 C         0.2226452502        5.0278284419      -22.2886661734
 O        -0.0171700392        4.0470968641      -21.5785642263
 C         1.5778521061        5.3823565474      -22.8262651836
 C         2.8611563464        5.4682666445      -21.9766681733
 C         4.0073274060        4.7840377404      -22.7196335415
 O         4.1791821765        5.0727376950      -23.8989278412
 C         5.0025087213        3.7739951811      -22.0383906475
 C         4.1040084118        2.4436047808      -21.8326190479
 O         3.6414989820        2.1221628295      -20.7823748094
 C         3.9840920644        1.3375456470      -22.8932236223
 C         3.5798266296        0.0260765698      -22.3276936628
 C         2.0554312504       -0.1684029454      -22.1554755438
 O         1.2617762408        0.6626881093      -22.5941089891
 C         1.5335756878       -1.4209557377      -21.4410145819
 C         1.2554599009       -0.9988438958      -19.9182601627
 O         1.3333477367        0.1542797873      -19.5481913555
 C         0.9093724583       -2.1249562119      -18.9462968880
 C         0.2239519047       -1.6099314583      -17.6938157758
 C        -1.0444525683       -0.8526560841      -18.1239168316
 O        -1.2787159747       -0.7945266420      -19.3123660485
 C        -1.7594545535       -0.0799769075      -16.9795556522
 C        -2.3795478818       -1.0347348852      -15.9134619314
 O        -1.8240647383       -2.1150827875      -15.8003105695
 C        -3.7399815581       -0.9020458402      -15.3255567764
 C        -3.7480914993       -1.5208549195      -13.8574473758
 C        -4.6161364480       -2.7425561591      -13.6197364282
 O        -5.5576630306       -3.0450806560      -14.3157576910
 C        -4.3638209113       -3.6037239340      -12.3585140035
 C        -4.8095223756       -2.8230320356      -11.0049534351
 O        -3.9869549600       -2.2029833023      -10.3601416722
 C        -6.3645096776       -2.7656495152      -10.8252742217
 C        -6.7118227071       -2.0142735408       -9.5074364093
 C        -7.1101764844       -3.0436126849       -8.3739884284
 O        -7.0868191852       -4.2280808244       -8.6208149794
 C        -7.7166204672       -2.4672983487       -6.9897773829
 C        -7.3468941837       -3.3860228307       -5.8780308794
 O        -6.5505128360       -2.9708578434       -5.0670819986
 C        -8.0545377882       -4.7827191129       -5.6957666912
 C        -7.0380938558       -5.9971893732       -5.3846176120
 C        -6.6564056910       -5.9575569441       -3.8473157402
 O        -6.7192952517       -5.0069353953       -3.1612599667
 C        -5.9950061119       -7.2718109148       -3.2874670139
 C        -4.4309024461       -7.1616511538       -3.2964637869
 O        -3.9022083330       -6.1091005404       -3.0859588972
 C        -3.4890811834       -8.3700173723       -3.7233599597
 C        -2.5485043545       -7.8786491637       -4.7157177982
 C        -3.1078925460       -7.6074820472       -6.1455378564
 O        -4.3127102985       -7.4516910392       -6.2407437223
 C        -2.2054339507       -7.4826008578       -7.3956616928
 C        -2.0744401687       -5.9276850099       -7.5586654289
 O        -1.1027749497       -5.3390914578       -7.1198373046
 C        -3.2350869651       -5.1572753106       -8.0625226932
 C        -3.1705619072       -3.6677963473       -7.6858894320
 C        -3.1837568106       -3.3360908177       -6.2162131656
 O        -4.1135653113       -3.8582398062       -5.6015927833
 C        -2.1167793709       -2.4358569643       -5.4446960526
 C        -2.9850020391       -1.3638289471       -4.6855801115
 O        -3.7613488867       -1.7085725249       -3.7921901581
 C        -2.8283508880        0.1707317806       -5.1168962093
 C        -3.6413408477        1.0272509228       -4.1469107802
 C        -2.6959485657        1.5369475810       -2.9433272558
 O        -1.5093653808        1.2561077754       -2.9350092641
 C        -3.4676334096        2.1065429125       -1.7869813900
 C        -3.8932176964        0.7861272324       -0.9962488484
 O        -5.0461086226        0.3841036431       -0.9898866155
 C        -2.8088408761       -0.0197746294       -0.2646254862
 C        -3.3419019853       -1.1405663566        0.6046473719
 C        -4.1707707470       -2.2231604959       -0.2395906847
 O        -3.6002021290       -2.6293373334       -1.2304336898
 C        -5.4963565886       -2.7385518139        0.4097727884
 C        -6.6256334180       -2.3428380277       -0.5881447523
 O        -6.4802415112       -2.7540888237       -1.7115513421
 C        -7.8405498155       -1.5159360530       -0.1016675146
 C        -9.1278399399       -1.5879226667       -1.0610293251
 C       -10.4898241103       -1.1960564703       -0.3464289998
 O       -10.5067154294       -0.5847236126        0.7409594803
 C       -11.8222845362       -1.5359661928       -1.0734147467
 C       -12.0406841253       -0.2332745349       -2.0508190662
 O       -11.4118399073       -0.2750516570       -3.1068384442
 C       -12.8746603044        0.9528327055       -1.5771988973
 C       -11.8486726119       -2.7270435490       -2.1412746677
 C       -12.9596628459       -1.6995482762       -0.0246063316
 C        -5.3019055158       -4.3265292671        0.6225665205
 C        -5.7944054730       -2.3910698093        1.8710757762
 C        -2.4890458221        2.8862776985       -0.9356566226
 C        -4.6726360294        2.9896099449       -2.1269301237
 C        -1.2120205715       -3.3013848228       -4.5083400049
 C        -1.1557552936       -1.8675219492       -6.4777805088
 C        -0.8097048385       -8.0660670968       -7.2120316616
 C        -2.9417175767       -7.9452309134       -8.6043173087
 C        -6.5507033796       -7.3411170348       -1.7794803695
 C        -6.4394304169       -8.5183708607       -4.0936211307
 C        -6.9844561692       -1.1197485703       -6.7541723942
 C        -9.1509680314       -2.1847816234       -7.1200455503
 C        -5.0784331458       -4.9470649366      -12.3661483089
 C        -2.8527094629       -3.8700038012      -12.3108348716
 C        -0.5934829041        0.7182837985      -16.2960705235
 C        -2.7599091809        1.0326137213      -17.7064027259
 C         0.1630335877       -1.7736217562      -22.0279042721
 C         2.3762794881       -2.6951824482      -21.4509608103
 C         6.2608068411        3.5577505627      -22.8039830204
 C         5.4092624606        4.2671760284      -20.5912941783
 C        -2.1667601113        5.0671496935      -22.9655546238
 C        -0.7140283109        6.8527434881      -24.0301319161
 H        -2.2662180617        7.7034868310      -19.8070783020
 H        -2.2485892503        5.9055244356      -20.3713800871
 H        -3.3117819221        7.0932024469      -21.0275235908
 H         1.5984194035        6.3544977920      -23.4133515317
 H         1.8081150941        4.5694550570      -23.5549505598
 H         2.6957375687        5.1405728542      -20.9608520661
 H         3.1253882063        6.5516656407      -21.7949978492
 H         4.8924834808        1.4135303519      -23.3741628378
 H         3.2660534850        1.8807624114      -23.6085688538
 H         4.0765057462       -0.1306930150      -21.3563479905
 H         3.8874539772       -0.8653170768      -23.0233290821
 H         1.7919720000       -2.5626967946      -18.3734022470
 H         0.4743590658       -2.9175630343      -19.5067473181
 H         0.9602525901       -0.9644142630      -17.1931682001
 H        -0.0932467272       -2.4108418993      -16.9772796266
 H        -4.3970163310       -1.4394610839      -16.0987480213
 H        -4.0369553115        0.1332820569      -15.2765068146
 H        -4.1705810032       -0.7001812143      -13.3454183926
 H        -2.7636304933       -1.6973280138      -13.3453503984
 H        -6.7843904927       -3.7093750264      -10.8364373046
 H        -6.7257320123       -2.3137347515      -11.6868632966
 H        -7.5329573915       -1.3489317669       -9.7896389293
 H        -5.7099552453       -1.4818087591       -9.2420983541
 H        -8.5293212214       -5.1052220310       -6.6284845919
 H        -8.8346542597       -4.7614762154       -4.9039570007
 H        -6.1103787578       -5.7582834357       -5.9554722026
 H        -7.3385364379       -6.9751524487       -5.7144615320
 H        -4.1114603940       -9.1902755280       -4.1138936947
 H        -2.9129587337       -8.6677042911       -2.8017303869
 H        -1.7365417276       -8.5794492174       -4.7924460846
 H        -2.0770331263       -7.0663195907       -4.2870031920
 H        -4.2659543486       -5.4504056454       -7.7700826722
 H        -3.1214157864       -5.2962162222       -9.1494675983
 H        -3.9920160057       -3.1787173436       -8.0450580650
 H        -2.2926528864       -3.2560495465       -8.1995926408
 H        -3.1782098343        0.2575304412       -6.2186833294
 H        -1.7306722992        0.3120261865       -5.1131546292
 H        -4.4199339603        0.4730467162       -3.7111479870
 H        -4.0208934981        1.9681721088       -4.6618420771
 H        -2.2088361118        0.6836281166        0.4302806046
 H        -2.0644041834       -0.2335426992       -1.0395588653
 H        -3.9878063233       -0.5488462931        1.3174361495
 H        -2.7115527150       -1.7601338888        1.2069225204
 H        -7.6070927110       -0.4612503580        0.0588957598
 H        -8.0116669335       -1.9910115390        0.8440709815
 H        -9.2244581360       -2.6550074691       -1.4185376983
 H        -9.0330801352       -0.9379169181       -2.0346826949
 H       -13.0095274226        1.6100257225       -2.4609053377
 H       -12.4046881767        1.4816953482       -0.6932471230
 H       -13.8651512277        0.6604285504       -1.2618972782
 H       -11.0945951631       -2.6546064258       -2.8432981072
 H       -12.8928928428       -2.6471401782       -2.6041262025
 H       -11.5873135118       -3.6381199587       -1.6912464638
 H       -12.6560219613       -2.5218408780        0.6244760359
 H       -13.8817644128       -1.9450597590       -0.5262686572
 H       -13.0482021608       -0.6623872507        0.4880280761
 H        -5.8705961719       -4.6941974312        1.4379271429
 H        -4.2109829500       -4.6122828671        0.6320773951
 H        -5.7088334288       -4.6928224086       -0.3424651363
 H        -6.5795011042       -3.0148728678        2.1699019670
 H        -5.9774222782       -1.3344878484        2.0604860708
 H        -4.9020151794       -2.4901539381        2.4574162446
 H        -1.4729191421        2.4207922339       -0.9610260664
 H        -2.8114381505        3.1385366510        0.0260283132
 H        -2.4547446790        3.8330834922       -1.5225426942
 H        -5.1132657816        3.3751016266       -1.1922377026
 H        -5.5353366721        2.3746875882       -2.5519213599
 H        -4.2640691555        3.8994866213       -2.6238156600
 H        -0.4393281493       -3.8406016860       -5.0597195398
 H        -1.8412526501       -3.9979317325       -3.8405125681
 H        -0.8088911465       -2.5772882587       -3.7846389008
 H        -0.7420504290       -2.7100345684       -7.0803776954
 H        -0.2960354245       -1.2982371232       -6.0095250380
 H        -1.6535997239       -1.2939587450       -7.2669302532
 H        -0.3857261216       -7.7995944882       -6.2612370345
 H        -0.1417044149       -7.7228271106       -8.0089236772
 H        -0.7610437264       -9.1823968725       -7.3094219684
 H        -3.9039933319       -7.4048152483       -8.6602661112
 H        -3.2101969056       -9.0216677188       -8.6126390523
 H        -2.3796282183       -7.7171861136       -9.5377747646
 H        -6.2367002350       -8.2185508449       -1.2999707523
 H        -7.6010638282       -7.3435304137       -1.8170226844
 H        -6.1534362874       -6.5291072169       -1.1880129736
 H        -7.4894280195       -8.4925012365       -4.1587149808
 H        -6.1066389055       -9.3452622433       -3.5098562694
 H        -5.9967538679       -8.5761244003       -5.0181162548
 H        -7.1911849207       -0.2526785109       -7.4237744055
 H        -5.8071150261       -1.2384224458       -6.7400612730
 H        -7.3234751426       -0.6848471863       -5.8057834848
 H        -9.6781805279       -2.9962509642       -7.5961962128
 H        -9.3176696170       -1.2292705165       -7.6877715329
 H        -9.5458803847       -1.9813306342       -6.1107756891
 H        -4.8325252879       -5.4573161370      -11.4125720728
 H        -4.7225525962       -5.6311276800      -13.0948195833
 H        -6.2367252309       -4.9312543012      -12.4727270011
 H        -2.2236562574       -3.2271259300      -11.7879332413
 H        -2.6342519368       -4.0225936994      -13.3818389361
 H        -2.6344353218       -4.9354022279      -11.8989782473
 H        -0.1560337881        0.2709818790      -15.3519631732
 H        -1.0569125806        1.5200170285      -15.8236585070
 H         0.1619188197        1.1345166298      -16.9339613152
 H        -3.4266379522        0.4312471165      -18.2038672066
 H        -2.1887056064        1.5205644085      -18.4671100234
 H        -3.1244154830        1.6519151951      -16.9207821350
 H         0.2086644418       -2.5022722615      -22.8819707687
 H        -0.3588717185       -0.9314234905      -22.4442559496
 H        -0.5156700659       -2.1629320320      -21.3497791108
 H         2.4205169278       -3.0739310239      -22.4924140213
 H         1.9121873461       -3.4971045968      -20.8436581106
 H         3.3923924258       -2.4584631271      -21.0773683736
 H         6.0771910714        3.1961518037      -23.8092491714
 H         6.9288529956        2.7815437143      -22.4121171171
 H         6.7069853632        4.4706018810      -22.8388354822
 H         6.0529003475        5.2410431228      -20.5811933568
 H         5.9070374856        3.4251705584      -20.0236736286
 H         4.5434551875        4.4727548747      -19.9585953644
 H        -3.0908877222        5.7431347978      -23.1631663440
 H        -2.4466060281        4.4220389200      -22.1564896791
 H        -2.1009437230        4.5102760187      -23.9049730128
 H         0.0275848677        7.6271891471      -23.8076907004
 H        -1.4900615819        7.4539957363      -24.4403489438
 H        -0.2996473498        6.2519903240      -24.9234377150
 Na       -4.9641792206       -3.7179766163       -3.1407700154
 Na        1.2081858575        2.2899654825      -20.7073601642
