232

 C        -2.2915618482        7.0300981850      -20.4485661301
 C        -1.1967056500        7.1116632724      -21.5033938455
 O        -0.4857655778        8.0412123220      -21.6223366951
 C        -0.9904467126        6.0793074868      -22.6748460886
 C         0.2045162442        5.1813184587      -22.2568343258
 O         0.0138259726        4.2108057424      -21.5587022765
 C         1.5886058170        5.3828860019      -22.9522940717
 C         2.8071035991        5.3273252991      -21.9955127053
 C         4.0212549309        4.8662652082      -22.7520180004
 O         4.2215361629        5.0609851872      -23.9373847871
 C         4.9760922317        3.7258245844      -22.0072534636
 C         4.1469850443        2.4301735387      -21.7844719617
 O         3.5414914685        2.2071011903      -20.7628374494
 C         4.0245960955        1.3383051140      -23.0598720948
 C         3.6236615733        0.0126854981      -22.4260124980
 C         2.0280930207       -0.2050595260      -22.2927308793
 O         1.3474265482        0.6708229756      -22.6408872666
 C         1.4207008371       -1.4549939276      -21.4608159620
 C         1.2266412538       -1.0006800864      -19.9893363902
 O         1.3692105635        0.1921972088      -19.6636975466
 C         1.1015625590       -2.1142863563      -18.9005524742
 C         0.3591178922       -1.5967662106      -17.7080483372
 C        -0.8565739307       -0.7821940793      -18.2332615667
 O        -1.2163510620       -0.6443139274      -19.3521046013
 C        -1.7172271797       -0.0769317480      -17.0457007039
 C        -2.5198443670       -1.2850121053      -16.1338995371
 O        -1.8656228905       -2.2725483834      -15.8404013573
 C        -3.8667258556       -0.8756900788      -15.2526134942
 C        -3.8332403644       -1.4324653257      -13.8234871759
 C        -4.7407251482       -2.7205009979      -13.6223986243
 O        -5.6766974828       -2.9528807684      -14.3154390479
 C        -4.3222315092       -3.7597671077      -12.3127568043
 C        -4.8742768613       -2.8412700442      -11.0845135157
 O        -4.1105413218       -2.1662066388      -10.3542974131
 C        -6.3658606104       -2.8762393634      -10.7463020279
 C        -6.7114843549       -2.0732631915       -9.4583312115
 C        -7.1456064035       -3.0472874055       -8.4144398359
 O        -7.0893838610       -4.2827499641       -8.5570793625
 C        -7.7027062423       -2.5232570475       -6.9954856903
 C        -7.2844512997       -3.5210302475       -5.8366672443
 O        -6.4792049854       -3.2072872316       -4.9782181394
 C        -8.0626191613       -4.8199858920       -5.8099791697
 C        -7.1778821718       -5.9714654421       -5.3890297285
 C        -6.7044698977       -5.9965145581       -3.9337567071
 O        -6.7167240440       -4.9825015574       -3.2401237723
 C        -6.0973834726       -7.3024008616       -3.2609417163
 C        -4.5063409669       -7.0600041506       -3.4146696907
 O        -3.8994852275       -6.0364713652       -3.0928159012
 C        -3.5896313601       -8.2740128762       -3.7697606065
 C        -2.4663472329       -7.8648913107       -4.7558652068
 C        -3.1172598970       -7.6357350962       -6.1648553364
 O        -4.3019135987       -7.4628704806       -6.2534283502
 C        -2.1346949415       -7.4014113918       -7.4113575436
 C        -1.9791406612       -5.7810597944       -7.4573943299
 O        -0.9085292863       -5.2491661930       -7.1507701904
 C        -3.2869276163       -5.0327942347       -8.0320307575
 C        -3.0482656682       -3.5120313416       -7.7289417413
 C        -3.2199930510       -3.3329448264       -6.2281000197
 O        -4.1362220944       -3.8068792049       -5.6013721556
 C        -2.1206783791       -2.4232354159       -5.5347922944
 C        -2.9408390950       -1.3187859030       -4.7457576715
 O        -3.6791336156       -1.6158260355       -3.8482460151
 C        -2.7778832307        0.1396874778       -5.0780822227
 C        -3.5868989095        1.0878610791       -4.1795246745
 C        -2.7391783503        1.6047286950       -2.9326313641
 O        -1.5264212368        1.4151993100       -2.9047233555
 C        -3.4382892092        2.2133589104       -1.7147817002
 C        -3.8268086825        0.8017063281       -0.9042946472
 O        -4.9685858279        0.4775808628       -1.0035691695
 C        -2.7637264504       -0.1320055027       -0.2766955026
 C        -3.3606638909       -1.1179301294        0.7106897885
 C        -4.1518088311       -2.3110504865       -0.1165811257
 O        -3.7495732716       -2.7136375908       -1.1715670073
 C        -5.5190740750       -2.8261833911        0.4388656105
 C        -6.6776184538       -2.5167079947       -0.5280942370
 O        -6.5932704812       -2.8341465920       -1.7115633498
 C        -7.8808083314       -1.5263075111       -0.1278983738
 C        -9.0855081685       -1.5971819498       -1.1445115113
 C       -10.3356575096       -1.1617103290       -0.3822342745
 O       -10.2870326086       -0.6852664889        0.7006931778
 C       -11.8074203128       -1.4286503719       -1.0439259286
 C       -12.0247899383       -0.2778698066       -2.0324518523
 O       -11.4383716008       -0.3472833179       -3.0835642303
 C       -12.9622701521        0.7817050994       -1.6239731698
 C       -11.8107935022       -2.6853755003       -1.9554317216
 C       -12.9489310178       -1.4451338727        0.0682501015
 C        -5.2890599489       -4.4261045507        0.2917560043
 C        -5.9165294261       -2.4182176966        1.9912527603
 C        -2.3479586769        3.0584942825       -0.9181173003
 C        -4.7881494727        2.9008311961       -1.9897160107
 C        -1.3267749862       -3.2496764860       -4.4413105201
 C        -1.1195702003       -1.7403386481       -6.4877728318
 C        -0.7612449746       -8.0538719724       -7.2132969258
 C        -2.8998776874       -7.9908748095       -8.7042089357
 C        -6.4201829281       -7.2779025410       -1.7653833637
 C        -6.4362967508       -8.6180055370       -4.0488411611
 C        -7.0177221313       -1.1019178300       -6.8166423929
 C        -9.2864110660       -2.4251525676       -6.8529380015
 C        -5.1864658179       -4.9730431598      -12.4277594742
 C        -2.7966627802       -3.9396161530      -12.1512423324
 C        -0.7080611381        0.7216046105      -16.1868152915
 C        -2.6765403202        1.0220877744      -17.6238186247
 C        -0.0674547371       -1.7877410538      -21.9591065889
 C         2.3413436041       -2.6716529069      -21.4063621057
 C         6.1958439520        3.6134318107      -22.9654349964
 C         5.4528662697        4.2508898188      -20.6216795957
 C        -2.1665787798        5.0342903952      -22.8894065599
 C        -0.7428047004        6.7329708868      -23.9829255353
 H        -2.2569721464        7.8391211134      -19.7989344395
 H        -2.1990059852        6.0267378726      -20.0032043541
 H        -3.2895509420        7.0584132224      -20.8206466038
 H         1.6903346482        6.3776009703      -23.5506900433
 H         1.7896458765        4.5893441039      -23.6318126446
 H         2.5880501059        4.6304847086      -21.2012644373
 H         2.9462233538        6.2562415399      -21.4768460172
 H         5.0048653955        1.3306076474      -23.5055935054
 H         3.3538299587        1.9165302107      -23.7638572165
 H         4.2107978251       -0.0824648253      -21.4631774927
 H         3.9533755700       -0.8172658703      -23.0568991655
 H         1.9752936765       -2.5746284228      -18.4419715179
 H         0.6041167393       -2.9933057548      -19.4459902420
 H         1.0366307069       -0.9032049066      -17.1488454609
 H        -0.0470139156       -2.3142760990      -17.0300936042
 H        -4.6304502078       -1.4489203386      -15.8833782719
 H        -4.0800025987        0.1967957591      -15.3706657905
 H        -4.0517083012       -0.5882889490      -13.1331618027
 H        -2.8179579130       -1.7828409718      -13.5214459323
 H        -6.7347716397       -3.8969817645      -10.7067495220
 H        -6.8445087746       -2.4562367954      -11.6198500248
 H        -7.6525543501       -1.4885131501       -9.8041312504
 H        -5.9148478912       -1.4752485566       -9.1355841554
 H        -8.2973835782       -5.1427371360       -6.7731618788
 H        -8.9355034092       -4.7096180417       -5.2042948700
 H        -6.4353468097       -5.9776950338       -6.1361043951
 H        -7.7441633632       -6.9419108198       -5.4359192051
 H        -4.2122547131       -9.0674144423       -4.2484897168
 H        -3.2611813692       -8.5734052853       -2.7626608008
 H        -1.6568926727       -8.6189589828       -4.8622587271
 H        -1.8357422727       -6.9594732930       -4.4300519856
 H        -4.1997306807       -5.1695051681       -7.4133690989
 H        -3.5119243507       -5.3775391891       -9.0805325249
 H        -3.7650491349       -2.7527541670       -8.1144263635
 H        -2.1037453602       -3.2072205099       -8.1284269947
 H        -3.1881930764        0.1740151237       -6.0856545084
 H        -1.6837252257        0.2414742968       -5.1901857400
 H        -4.4827586918        0.4547210831       -3.7961115718
 H        -3.9153611709        1.9944089032       -4.7238237154
 H        -1.9910644616        0.4633903612        0.2617402906
 H        -2.1845027460       -0.6136706333       -1.0983327137
 H        -3.8749320616       -0.6315782737        1.5276578395
 H        -2.5525180475       -1.7366087191        1.1442449294
 H        -7.4696693107       -0.5337476827       -0.2192180751
 H        -8.1790263615       -1.6409652724        0.8704971249
 H        -9.1221634714       -2.5744435830       -1.5728146676
 H        -9.0416595314       -0.9084007772       -1.9728521737
 H       -12.9458531576        1.5113985162       -2.4724900189
 H       -12.5505746389        1.2223225561       -0.6544589863
 H       -13.9733732731        0.5099535842       -1.4607445928
 H       -10.9457142143       -2.7330650249       -2.6384991813
 H       -12.8040424929       -2.7462794068       -2.4151034555
 H       -11.5519287528       -3.5200127838       -1.3523120184
 H       -12.5470119309       -2.1223578459        0.8328020216
 H       -13.9198274830       -1.7923886543       -0.3096080114
 H       -13.0697978688       -0.4260285039        0.3699451257
 H        -6.0608590969       -5.0252969003        0.8085052728
 H        -4.2453155375       -4.6503449854        0.6190560625
 H        -5.3190910513       -4.5612500918       -0.8072325323
 H        -6.8659458207       -2.9183517725        2.1910500213
 H        -5.9664698524       -1.4023038873        2.0777541642
 H        -5.1009523504       -2.6279704296        2.7456402617
 H        -1.4933516506        2.4942405608       -0.6063395534
 H        -2.8660003408        3.5685351565       -0.0585319932
 H        -2.0849048936        3.8720440815       -1.5044216774
 H        -5.2857207758        3.3521121170       -1.1373840822
 H        -5.4878972283        2.1486090289       -2.3763155801
 H        -4.4787938135        3.7433861364       -2.6578740400
 H        -0.4027572532       -3.7591941680       -4.9427687227
 H        -1.9713180635       -4.0351664552       -4.0243217065
 H        -1.0948422538       -2.6095504120       -3.5818463368
 H        -0.4543065210       -2.3926109022       -7.0668177402
 H        -0.5137919988       -1.0738151427       -5.9326538619
 H        -1.6938562283       -1.1893717477       -7.2362508985
 H        -0.2156436579       -7.4637654440       -6.5077485457
 H        -0.2013892059       -8.1639011118       -8.1443737743
 H        -0.7681468061       -9.1112198323       -6.8843531403
 H        -3.9423857740       -7.7995205498       -8.6235205518
 H        -2.8245258859       -9.0871786027       -8.6978292139
 H        -2.5836035774       -7.5727555523       -9.6646367402
 H        -6.2725178728       -8.2308792918       -1.3356262255
 H        -7.4487907979       -7.0060272597       -1.6822360611
 H        -5.8147925993       -6.6266590198       -1.2068440687
 H        -7.4832859717       -8.6226024748       -4.3512746038
 H        -6.1544229535       -9.4369611799       -3.3724925383
 H        -5.8179150996       -8.6780530457       -4.8953249055
 H        -7.3209168360       -0.1657779078       -7.3688526498
 H        -5.8880032876       -1.0636293556       -6.7209330809
 H        -7.4479971284       -0.7956305893       -5.8667054443
 H        -9.7578045292       -3.2757557682       -7.3462249529
 H        -9.7448645431       -1.5300072466       -7.1016093236
 H        -9.4487003077       -2.4647307203       -5.7830737116
 H        -4.9507170936       -5.7295319690      -11.6197253081
 H        -5.0095464023       -5.5856942367      -13.3888596888
 H        -6.2453312281       -4.7740103498      -12.3658768641
 H        -2.3031379269       -2.9498368596      -11.9458099956
 H        -2.5496513992       -4.3412862839      -13.1887967390
 H        -2.4066203590       -4.5876358610      -11.4565454349
 H         0.0393774777        0.0845039059      -15.6724416342
 H        -1.1625357370        1.1294044331      -15.2572029724
 H        -0.2370268198        1.5030796686      -16.7245026542
 H        -3.2778943220        0.4175833042      -18.2999763735
 H        -2.0449748321        1.6557045946      -18.1954611749
 H        -3.1173901617        1.4814870887      -16.7806346577
 H        -0.1196617131       -2.2190929647      -22.9438832357
 H        -0.6073191609       -0.9175136709      -22.0302470289
 H        -0.7171420403       -2.4420933332      -21.3460549038
 H         2.6952578353       -2.8216385650      -22.4058476313
 H         1.8138875944       -3.6231596002      -21.0765727015
 H         3.1822222745       -2.4686452567      -20.7346180844
 H         5.9799194788        3.6579290448      -23.9753042537
 H         6.7398085406        2.7501060772      -22.8399517759
 H         6.7743929729        4.4863186630      -22.7592283127
 H         5.8522073652        5.2442286972      -20.6668491001
 H         6.1297924017        3.5147476903      -20.1157230244
 H         4.5992970683        4.2699954609      -19.8935957812
 H        -3.0201427660        5.4392514319      -23.4435075404
 H        -2.5743888444        4.5537048823      -21.9673750807
 H        -1.8156220160        4.2804566764      -23.6341114241
 H        -0.0028031072        7.4941895955      -24.0576857457
 H        -1.6709861406        7.3320477330      -24.2864142637
 H        -0.6024476588        6.0550312791      -24.7855514874
 Na       -4.7209635960       -3.7148381018       -3.2179971846
 Na        1.2053409999        2.2634687302      -20.6806457979
