232

 C        -2.2349720405        6.9940342139      -20.3808899049
 C        -1.2204769650        7.1383797579      -21.5452883760
 O        -0.4909019095        8.1160242125      -21.5981403072
 C        -1.0433695680        5.9972431728      -22.6993724647
 C         0.2082252603        5.1911684090      -22.2901018822
 O         0.1775125065        4.3111080512      -21.4017739198
 C         1.5469404071        5.4087352833      -22.9974900485
 C         2.7198508927        5.0997230993      -21.9955495424
 C         3.9805502091        4.6869120553      -22.7672863170
 O         4.2007585212        5.1220460868      -23.8461103522
 C         4.9905106833        3.7171963042      -22.0666454211
 C         4.1841277711        2.4517819380      -21.8918064136
 O         3.4957317418        2.4082488054      -20.8657301627
 C         4.0114017171        1.2973832945      -22.9239333579
 C         3.5597422994       -0.1529463027      -22.4990571152
 C         2.0233069918       -0.2139278780      -22.3432645830
 O         1.3182015034        0.7520877608      -22.6657174579
 C         1.4571410790       -1.3639032030      -21.5559060802
 C         1.3318274533       -0.9463526355      -20.0515165080
 O         1.3778523210        0.2023660757      -19.6216934825
 C         1.2551987660       -1.9885487614      -19.0008476453
 C         0.4106998706       -1.5350142192      -17.7666740261
 C        -0.8796061820       -0.7548552179      -18.1007767664
 O        -1.1327553729       -0.5521185268      -19.2917365178
 C        -1.8032588983       -0.0763211327      -16.9576073756
 C        -2.4637736100       -1.2503929609      -16.0848933897
 O        -2.0047611498       -2.3449877771      -15.9625084347
 C        -3.8031692700       -0.9481816134      -15.3250519398
 C        -3.8035733680       -1.5041777072      -13.9320782939
 C        -4.6931134776       -2.7032915609      -13.5438906829
 O        -5.6953487640       -2.8871465377      -14.2153951758
 C        -4.4318543413       -3.6070284441      -12.3569311030
 C        -4.9313992439       -2.8457001127      -11.0947978608
 O        -4.1265772157       -2.1875470124      -10.4532890634
 C        -6.4280892207       -2.9306158449      -10.7582260653
 C        -6.8368720369       -2.1749933766       -9.4509133524
 C        -7.3019368793       -3.1279142038       -8.3844994992
 O        -7.1277254833       -4.3052187439       -8.4581410767
 C        -7.7148735078       -2.5447571557       -6.8483259150
 C        -7.2139662506       -3.5796548493       -5.8162914013
 O        -6.4053872805       -3.2399730581       -4.9909494197
 C        -7.9791815062       -4.9090200464       -5.9106802500
 C        -7.2987698361       -6.1707707839       -5.4046822030
 C        -6.7549421867       -6.0627265080       -3.9798420586
 O        -6.8660885740       -5.0668817108       -3.2688546430
 C        -5.9745434555       -7.3171951422       -3.3660419444
 C        -4.4490177532       -7.0476367629       -3.4215794728
 O        -4.0688750263       -5.9188862799       -3.1397035279
 C        -3.5523561784       -8.2573133884       -3.7523150566
 C        -2.4447779743       -7.8870068853       -4.8502160854
 C        -3.0303000111       -7.5412574135       -6.1536628326
 O        -4.2504073016       -7.4944794961       -6.3183064839
 C        -2.1210612415       -7.2852749151       -7.3643640420
 C        -1.9595584733       -5.8089339345       -7.5594372802
 O        -0.9624998098       -5.2499943967       -7.2042063149
 C        -3.1409743232       -5.0078866990       -7.9534537669
 C        -3.0063346576       -3.4545314602       -7.7514123335
 C        -3.1661019119       -3.1545043288       -6.2767893232
 O        -3.9563847550       -3.8144560569       -5.6399904567
 C        -2.1181684713       -2.2780767914       -5.4982598609
 C        -2.8975782135       -1.2416405672       -4.6903147721
 O        -3.6710942406       -1.5927419306       -3.8429015940
 C        -2.7539529301        0.2888920168       -5.0800894697
 C        -3.5443373183        1.1874568616       -4.1642133864
 C        -2.7013899497        1.5590952952       -2.9729208025
 O        -1.4859029633        1.5507047264       -2.9861297504
 C        -3.4425169257        2.1499812476       -1.5925158974
 C        -3.7989088718        0.8533272588       -0.8281955448
 O        -4.9469138315        0.4526724480       -0.9038489690
 C        -2.7281849734       -0.1196189271       -0.3077850750
 C        -3.4336662418       -1.1529687203        0.6655536438
 C        -4.2440705958       -2.2082807112        0.0073894729
 O        -3.8199024774       -2.6877444323       -1.0465371727
 C        -5.5769566455       -2.9877192148        0.4394557961
 C        -6.6883502911       -2.4815747215       -0.6202385757
 O        -6.6994408161       -2.9089854450       -1.7427759347
 C        -7.8545661121       -1.5446738942       -0.2048123022
 C        -8.9938249683       -1.6268777440       -1.1422692840
 C       -10.2549652184       -1.2395578444       -0.3659045519
 O       -10.1518911072       -0.7255712068        0.7305374174
 C       -11.7289514581       -1.4549331290       -0.9704073763
 C       -11.9976718522       -0.2245932135       -2.0901926680
 O       -11.4427948241       -0.2521590492       -3.1669400943
 C       -13.0484072095        0.8533700041       -1.7663002499
 C       -11.8184194140       -2.8357358787       -1.6000341650
 C       -12.7514024365       -1.3587309876        0.1554421394
 C        -5.3632329495       -4.4902953273        0.1917366991
 C        -5.9033601341       -2.5568114184        1.9161578384
 C        -2.3998866473        3.1369050122       -0.8950414030
 C        -4.7280131517        2.8673561441       -1.8806391290
 C        -1.4705254431       -3.2181073735       -4.4185852252
 C        -1.0690663430       -1.6663767933       -6.4500670785
 C        -0.7755774382       -7.9927902499       -7.2435569874
 C        -2.7700478635       -7.9550829532       -8.6519678857
 C        -6.2759805261       -7.3118670707       -1.8890025121
 C        -6.5935730857       -8.5995890649       -3.9298996896
 C        -7.1475070561       -1.1146578124       -6.7175279643
 C        -9.2699265037       -2.5552767325       -6.8003020714
 C        -5.1678693348       -4.9586795945      -12.5842272991
 C        -2.9406389129       -3.9398281925      -12.1042390866
 C        -0.9055300955        0.6332534835      -15.8950511018
 C        -2.7441229982        0.8843201594      -17.5989042996
 C        -0.0266727738       -1.7387354680      -21.9694790022
 C         2.3343906186       -2.6937506950      -21.6009877450
 C         6.2181555806        3.5333143434      -23.0573876980
 C         5.4226053503        4.2484782095      -20.6804479068
 C        -2.2921980438        4.9965446681      -22.7170360245
 C        -0.8553799164        6.6917107984      -24.0122659313
 H        -2.2104486779        7.9087057319      -19.8283249700
 H        -2.0878743255        6.1194301712      -19.7874951712
 H        -3.2447090966        6.9850282365      -20.7090315504
 H         1.6064604777        6.3735321514      -23.3227733231
 H         1.7652214324        4.7898336196      -23.8840520131
 H         2.3496622829        4.4166559494      -21.1993012934
 H         2.9597528313        6.0045832034      -21.5012963689
 H         5.0219092254        1.3039695427      -23.5469367494
 H         3.2724748613        1.7721768067      -23.5403000800
 H         4.0719170381       -0.6004750053      -21.6258180160
 H         3.8179952452       -0.7524694341      -23.3183349509
 H         2.2015413586       -2.3786698144      -18.6363367094
 H         0.8016139032       -2.9245456163      -19.4615133762
 H         0.9552352264       -0.8683476789      -17.1087195405
 H         0.0482822554       -2.3876765487      -17.2225338798
 H        -4.5366779113       -1.3501575771      -16.0051814971
 H        -3.9549412913        0.1816040280      -15.3377485082
 H        -4.3309115522       -0.6815803026      -13.3116356213
 H        -2.8241420312       -1.5605960569      -13.4950993092
 H        -6.6714059660       -4.0447285466      -10.6238526950
 H        -7.0066525768       -2.6829117415      -11.7178980427
 H        -7.5122830365       -1.3709917852       -9.6951083019
 H        -5.9621412716       -1.8061606314       -9.0015917418
 H        -8.4913533202       -5.1923204836       -6.8218426517
 H        -8.6443749239       -4.6583954150       -5.1293397074
 H        -6.4958468263       -6.3646871468       -6.1165819193
 H        -7.9908438915       -7.0387718654       -5.3643879846
 H        -4.2184002983       -9.0389961051       -4.0664629572
 H        -3.1330873715       -8.4605259228       -2.7775594779
 H        -1.5915434754       -8.6407782090       -4.9518789298
 H        -1.7749519666       -6.9621415949       -4.5345595631
 H        -4.0546510059       -5.3537301316       -7.4581290374
 H        -3.3663481880       -5.1311991620       -9.0429172727
 H        -3.8013768716       -2.8986519451       -8.4233568993
 H        -2.0566483893       -3.1913050012       -8.2217637096
 H        -3.0189268512        0.3936695758       -6.0790324601
 H        -1.6745297625        0.3936124470       -5.0005088806
 H        -4.4963245755        0.5920566424       -3.8393608411
 H        -3.7911307539        2.1463445345       -4.5875914297
 H        -1.8601218139        0.3029959166        0.1366414458
 H        -2.3729933032       -0.6934600675       -1.2027532765
 H        -4.0028648535       -0.7261319799        1.4637402045
 H        -2.6029498727       -1.7797107374        1.1080176238
 H        -7.4859962684       -0.5344819512       -0.1003697171
 H        -8.1536318411       -1.8286279740        0.8193869908
 H        -8.9867847701       -2.5974035061       -1.5376116725
 H        -8.9765394083       -0.9967523242       -1.9396795268
 H       -13.0399881407        1.6078456599       -2.5332236629
 H       -12.9193637925        1.2242453779       -0.7880336709
 H       -14.0858791151        0.4016235177       -1.8151247354
 H       -10.9867340817       -2.9300932196       -2.3628934519
 H       -12.8006129869       -3.0170634976       -1.9089699484
 H       -11.4642813180       -3.6510983266       -0.9010322452
 H       -12.4571688538       -2.1475591194        0.8161505685
 H       -13.7837161176       -1.4992759313       -0.2341376905
 H       -12.7577171772       -0.3887330337        0.5083006804
 H        -6.3521728228       -5.0355993081        0.2349735040
 H        -4.6947338268       -4.8566072593        0.9442816342
 H        -4.9134051099       -4.5798259952       -0.7817758027
 H        -6.9418639613       -2.8334185017        2.2021758240
 H        -5.8013742864       -1.4451464813        1.7985771663
 H        -5.1598022127       -2.7715072456        2.6755864896
 H        -1.6063751075        2.6603563874       -0.3822712453
 H        -2.9827257381        3.7872622686       -0.1922060506
 H        -2.0608001508        3.8956147344       -1.5811747744
 H        -5.2032263846        3.3182222418       -1.0026405946
 H        -5.4115336969        2.1703130482       -2.2863067153
 H        -4.4340216242        3.6515609494       -2.5417681160
 H        -0.7619106040       -3.8128135419       -4.9742856871
 H        -2.2101047154       -3.9017623009       -4.0785861605
 H        -1.0748417193       -2.7064545377       -3.5137543334
 H        -0.4194485376       -2.3920306207       -6.8829303587
 H        -0.4590201437       -0.9900106476       -5.9313866319
 H        -1.5946571947       -1.1349353653       -7.2412504994
 H        -0.0494378075       -7.3122895492       -6.7624754725
 H        -0.4129766965       -8.3706382349       -8.1996905221
 H        -0.7916018341       -8.9429838520       -6.7696689075
 H        -3.8419597335       -8.0228885533       -8.6806532585
 H        -2.4405830071       -8.9608043508       -8.6898255732
 H        -2.4937303606       -7.3913595718       -9.5141255202
 H        -6.1517559103       -8.3354477077       -1.4965204942
 H        -7.3149764465       -6.9740058337       -1.7572001812
 H        -5.6315090962       -6.7088859749       -1.2787095903
 H        -7.6653629032       -8.4856072219       -3.6678381297
 H        -6.1206011165       -9.4029625025       -3.3725462396
 H        -6.4391463489       -8.7754960108       -5.0760121897
 H        -7.5870691032       -0.3364437510       -7.3430901521
 H        -6.1229623880       -1.0780417222       -6.7761829773
 H        -7.4817779164       -0.6803813489       -5.7329084120
 H        -9.6006591766       -3.4646122384       -7.2688681382
 H        -9.7895271635       -1.7135879499       -7.1711041830
 H        -9.5463928601       -2.4792206907       -5.7775667063
 H        -4.9718118314       -5.7217338853      -11.8097934385
 H        -4.6864155917       -5.4145402567      -13.4972755353
 H        -6.2162154111       -4.9485827589      -12.7251211950
 H        -2.3092577150       -3.0068982491      -11.9113236292
 H        -2.5538015026       -4.6482309766      -12.7986337000
 H        -2.8658686499       -4.4259273889      -11.1346545668
 H        -0.0895228126        0.0332549372      -15.6295060687
 H        -1.3308342962        0.8199093948      -14.8533581772
 H        -0.5110411564        1.6070878768      -16.2857704635
 H        -3.2670214072        0.3212919866      -18.4069618078
 H        -2.0559072048        1.6173179030      -18.0003304613
 H        -3.2950651717        1.2869912433      -16.7602019786
 H        -0.1451086206       -1.9282168763      -22.9829509330
 H        -0.7910802529       -0.9541939556      -21.7295090374
 H        -0.4523127413       -2.6665721896      -21.5242123139
 H         2.8690444185       -2.7953454666      -22.5408886303
 H         1.7404737229       -3.5660553027      -21.4363701485
 H         3.0550462459       -2.6521069374      -20.7775651718
 H         5.9800152254        3.5967601499      -24.1091826204
 H         6.6288001448        2.5697105042      -22.8981376703
 H         7.0329223893        4.2945983563      -22.9638827578
 H         5.6645462053        5.2824427138      -20.8152148799
 H         6.2298231557        3.6467184257      -20.3294409773
 H         4.6926545240        4.1527546525      -19.8582578762
 H        -3.0937289842        5.3158309678      -23.3345691000
 H        -2.6559268598        4.7858342152      -21.6876272312
 H        -2.0708431128        4.0648901676      -23.2760965970
 H        -0.1591037635        7.5434157445      -24.0001500352
 H        -1.8012631009        7.2054601781      -24.1768686704
 H        -0.5981561572        6.1962725367      -24.8898059494
 Na       -4.5050972278       -3.6631988876       -3.2316813780
 Na        1.1947060412        2.2358375139      -20.7559118864
