232

 C        -2.1477535968        6.9090291441      -20.4155588910
 C        -1.1948655693        7.1423490033      -21.5520007157
 O        -0.4853775707        8.1351928043      -21.6204328697
 C        -1.1195022690        5.9332154249      -22.6202820148
 C         0.1941120568        5.1212373939      -22.2343557133
 O         0.1540652809        4.3575961592      -21.2497382618
 C         1.5014048318        5.4714836435      -22.9080105663
 C         2.7049213802        5.0107367548      -22.0294368464
 C         3.9775437689        4.6604303522      -22.8284287901
 O         4.1641037879        5.2071773002      -23.8964865055
 C         5.0418655138        3.5517883868      -22.0977929564
 C         4.1433073672        2.3184159022      -21.8672115841
 O         3.3825075495        2.4595946999      -20.8907479985
 C         4.0606872352        1.2757590847      -22.9962600031
 C         3.5188616227       -0.0925846321      -22.6033820951
 C         2.0470977788       -0.1190314525      -22.2565730412
 O         1.2716851584        0.7886830214      -22.6854041449
 C         1.5040727077       -1.3261546834      -21.5034766649
 C         1.3973719209       -0.8503186783      -19.9414034371
 O         1.4455057661        0.3209251354      -19.7490096101
 C         1.1962247046       -2.0045510058      -18.9398067224
 C         0.4586605399       -1.5510500695      -17.6824205807
 C        -0.8351856613       -0.6891648096      -17.9803642141
 O        -1.1820382648       -0.4819242632      -19.1556702655
 C        -1.7255839889       -0.1421460310      -16.9027205571
 C        -2.4892901628       -1.3367726969      -16.1181384016
 O        -2.0065065576       -2.4445728714      -16.1243829503
 C        -3.8525495343       -0.9910938923      -15.3317735373
 C        -3.6968443154       -1.4178912025      -13.8651540872
 C        -4.7094404219       -2.6728674879      -13.6724730982
 O        -5.7836236055       -2.8026047737      -14.2309926722
 C        -4.4332208951       -3.5856442923      -12.3870434942
 C        -5.0185320288       -2.8543126576      -11.1035179033
 O        -4.2653605889       -2.1700104627      -10.4886322230
 C        -6.5214997022       -2.9722400289      -10.7093192476
 C        -6.8633869624       -2.2073624250       -9.4292100473
 C        -7.2009805731       -3.1858886731       -8.2482612016
 O        -7.2581734500       -4.3651707522       -8.4421599887
 C        -7.7795358164       -2.5840606560       -6.9139188109
 C        -7.2184863959       -3.6010145806       -5.7656877209
 O        -6.2845178879       -3.2252780834       -5.0960784576
 C        -7.9589473277       -4.9613745247       -5.7988363525
 C        -7.2857533026       -6.3272482626       -5.3761264023
 C        -6.7649662349       -6.1449843169       -3.9714043569
 O        -7.0708845837       -5.1912049923       -3.3401945374
 C        -6.0511225445       -7.3647654798       -3.3385171650
 C        -4.4468404054       -7.0663199916       -3.5698764224
 O        -4.0171229648       -5.9911564773       -3.2687735732
 C        -3.4529352817       -8.1662481283       -3.7407063223
 C        -2.3952864405       -7.8212705144       -4.7844057606
 C        -3.0335468530       -7.5981494617       -6.1865371729
 O        -4.2632877909       -7.4757801817       -6.3337863888
 C        -2.0424114265       -7.4058985752       -7.4219588387
 C        -1.9441387305       -5.7056883883       -7.5396817379
 O        -0.8971226215       -5.1972189709       -7.2292762377
 C        -3.1690430387       -4.9389488660       -8.0883396311
 C        -2.9962438293       -3.4422458597       -7.8323610782
 C        -2.9680383538       -3.2188991883       -6.2889261528
 O        -3.8456570125       -3.8056084663       -5.6501015765
 C        -2.0960732029       -2.2128040054       -5.5009119635
 C        -2.9240006123       -1.1339627133       -4.7044843165
 O        -3.7067304743       -1.3873490358       -3.7831016089
 C        -2.7815006257        0.4151879781       -5.0470814399
 C        -3.5629427714        1.2876928370       -4.0649502144
 C        -2.6392317251        1.7383028816       -2.9003640779
 O        -1.4541249283        1.6408582345       -3.0187052074
 C        -3.4117457833        2.1061464963       -1.6272391432
 C        -3.8069480502        0.6898003648       -0.8606216857
 O        -5.0056617169        0.4576147635       -0.7106738984
 C        -2.7644442563       -0.2065768324       -0.2298185315
 C        -3.4777014629       -1.1932842662        0.7635772570
 C        -4.2106420006       -2.2404642745       -0.1530976074
 O        -3.6740169827       -2.6226718799       -1.1948542293
 C        -5.5692641689       -2.9209286616        0.3724663959
 C        -6.6935246620       -2.4894901037       -0.7208330913
 O        -6.5842659260       -2.9748368609       -1.8113696537
 C        -7.7747036631       -1.6052776129       -0.2384565393
 C        -8.9962024335       -1.6058049639       -1.0858934715
 C       -10.2641682508       -1.1302421001       -0.3874512558
 O       -10.1141745528       -0.7484948473        0.7923623224
 C       -11.6930576061       -1.3804933180       -0.9579395495
 C       -12.0116104565       -0.3150101855       -2.0973922250
 O       -11.3778199292       -0.2440311442       -3.1516974503
 C       -13.0538886678        0.8044296160       -1.8795255930
 C       -11.7961152653       -2.9080970318       -1.4224914947
 C       -12.5956741982       -1.2569365547        0.2944785127
 C        -5.5294943552       -4.4664141729        0.3163400019
 C        -5.9424953795       -2.6904640558        1.8385848960
 C        -2.4968749213        3.0343874817       -0.8412120789
 C        -4.6698691000        2.9514195042       -1.9258444114
 C        -1.4440402862       -3.1677903450       -4.4500499639
 C        -0.9486686218       -1.6090347014       -6.3694002852
 C        -0.5839456002       -7.9401709849       -7.2356386033
 C        -2.7727709821       -7.9173793308       -8.7015389140
 C        -6.2328850003       -7.3529296695       -1.7501595311
 C        -6.6547635443       -8.6833636889       -3.9304068770
 C        -7.3086058401       -1.1937771785       -6.5905247207
 C        -9.3302258318       -2.5488168914       -6.8739021803
 C        -5.1627282537       -4.9557748953      -12.7068105974
 C        -2.9447050140       -3.9318235708      -12.0915252615
 C        -1.0315840763        0.5357382818      -15.6459203371
 C        -2.8649088939        0.7583421542      -17.6058922043
 C         0.0905735931       -1.6180239101      -22.0239838323
 C         2.3070494029       -2.6467810947      -21.8728926198
 C         6.2703785860        3.4021850633      -23.0727934147
 C         5.4854940316        4.2704432432      -20.8489452491
 C        -2.3076112269        5.0289823217      -22.5190745542
 C        -1.0339162391        6.6561670570      -24.0271706353
 H        -2.2408166679        7.8383301495      -19.8127282113
 H        -1.8665881637        6.0639578161      -19.8305292793
 H        -3.1752763709        6.7977445106      -20.7852324740
 H         1.4747446836        6.4999999062      -23.1611098477
 H         1.6762692753        4.9578736972      -23.8704569502
 H         2.2976924753        4.1574838822      -21.4519244723
 H         2.9283680721        5.8337971872      -21.2958642223
 H         5.1221586108        1.1883704057      -23.3308365788
 H         3.5134925853        1.7876838747      -23.8039347709
 H         3.9542850297       -0.4542938196      -21.7188663075
 H         3.8105567206       -0.8020184768      -23.3847450533
 H         2.2332656172       -2.3867137819      -18.6878073676
 H         0.8233245506       -2.8963620554      -19.3584987058
 H         1.0308448689       -0.8497564840      -17.1252232516
 H         0.0967129162       -2.3859907830      -17.0445091513
 H        -4.6856061479       -1.4543741410      -15.8079630472
 H        -3.9206794365        0.0628303800      -15.5175083922
 H        -3.9743857458       -0.7246746984      -13.0615502139
 H        -2.6762681952       -1.7222357815      -13.6488448554
 H        -6.7648397238       -4.0778469950      -10.4939531642
 H        -7.1764914370       -2.7676520671      -11.6162007867
 H        -7.7234072321       -1.7061462451       -9.6294391152
 H        -6.0454985748       -1.4717368818       -9.2148845088
 H        -8.2734285430       -5.1815022217       -6.8562853854
 H        -8.8406177819       -4.8049908230       -5.1344659780
 H        -6.4437415634       -6.5098356188       -6.1159481968
 H        -8.0065996467       -7.1230871062       -5.3391384150
 H        -3.9345846257       -9.0745083635       -3.9954503217
 H        -2.9994883945       -8.1837313087       -2.7581316831
 H        -1.7249067225       -8.7328879530       -4.8078546332
 H        -1.6410841008       -7.1167989289       -4.5187409097
 H        -4.1009138833       -5.3528457927       -7.7084813058
 H        -3.2737635171       -4.9645857374       -9.1536945800
 H        -3.7485154759       -2.8430765264       -8.3903793399
 H        -2.0036265020       -3.2383675657       -8.3821441345
 H        -3.0527648406        0.6054696716       -6.0856599392
 H        -1.7329940365        0.5724690699       -4.9167454515
 H        -4.4371145058        0.8432937123       -3.7698093464
 H        -3.7535247118        2.2505510994       -4.5846263451
 H        -1.9962654944        0.4097571668        0.2520988667
 H        -2.2954189936       -0.8314355676       -0.9815247183
 H        -4.3872857566       -0.7602530005        1.2513755726
 H        -2.7430811234       -1.5774578285        1.4909577230
 H        -7.2313311480       -0.6300538150       -0.1636657222
 H        -7.8986280201       -1.8696255966        0.8511069366
 H        -9.1161182801       -2.6329156073       -1.4147333418
 H        -8.8581127548       -1.0430091723       -2.0287421421
 H       -12.9763983494        1.5346508431       -2.6356465543
 H       -13.0245776897        1.1931204554       -0.9011384263
 H       -14.0589186707        0.3591446858       -2.0223402569
 H       -11.2147935213       -3.1299896480       -2.2794354297
 H       -12.9101416043       -3.0730752011       -1.4824401336
 H       -11.3886738523       -3.6479437418       -0.6822574624
 H       -12.4494373380       -2.1838129385        0.7495766935
 H       -13.5852466774       -1.1035741273       -0.0546922522
 H       -12.4288626312       -0.3346470049        0.8646413041
 H        -6.5117858346       -4.8173853753        0.0710139568
 H        -5.2601955203       -4.8563797258        1.2804155751
 H        -4.8452832894       -4.7531828026       -0.4823773896
 H        -6.8542755297       -3.2807956028        1.9719020532
 H        -6.0055271796       -1.5837575623        2.2349057595
 H        -5.1495998782       -3.0995925709        2.4329452988
 H        -1.6836556163        2.4690442349       -0.3279433273
 H        -3.0151630780        3.6313095533       -0.1548275006
 H        -2.0821216274        3.8519820408       -1.5203246846
 H        -5.0274188481        3.1695525422       -0.9423211564
 H        -5.4155879538        2.3035847268       -2.3819827626
 H        -4.4754468382        3.8427774697       -2.4596382007
 H        -1.0471848071       -3.9181220307       -5.0131440552
 H        -2.2196377390       -3.6294601341       -3.8473764899
 H        -0.7551195532       -2.6819569435       -3.7909445909
 H        -0.4040627207       -2.4597304804       -6.7311502889
 H        -0.2084495214       -1.0632854337       -5.7574124623
 H        -1.3055824930       -0.9701261819       -7.1610258416
 H        -0.1258254018       -7.1896514009       -6.5802417788
 H         0.0001784392       -8.1544421154       -8.1185756891
 H        -0.5167284035       -8.9414382063       -6.8443219479
 H        -3.8412526546       -7.6849176078       -8.6615593461
 H        -2.7426664814       -8.9723594938       -8.8162515835
 H        -2.4461810948       -7.3457296052       -9.5388549895
 H        -5.7911353833       -8.3051580705       -1.3529397080
 H        -7.2845076193       -7.1940949202       -1.4191236662
 H        -5.5994610431       -6.5469105361       -1.2547579284
 H        -7.6479781109       -8.7884423787       -3.4300959543
 H        -5.9476113381       -9.4876616039       -3.6218980402
 H        -6.7596666995       -8.6863295958       -5.0407436641
 H        -7.7077216918       -0.4139793591       -7.1359096279
 H        -6.2344005923       -1.2505821992       -6.6695617672
 H        -7.5837168092       -0.8574534003       -5.5981554471
 H        -9.7969339310       -3.4558610500       -7.1637763914
 H        -9.7833418541       -1.6851346147       -7.4343762399
 H        -9.5380507026       -2.1529560401       -5.8975678694
 H        -5.2856228825       -5.6795121609      -11.9425561093
 H        -4.6179372924       -5.3813921793      -13.4643372176
 H        -6.1905162197       -4.7908342898      -13.1090017425
 H        -2.3570724856       -3.0916090599      -11.8743089854
 H        -2.4867621562       -4.6677528066      -12.6935316747
 H        -2.9837461689       -4.3865683998      -10.9948290461
 H        -0.1793629963        0.0498146109      -15.0739063223
 H        -1.7506021911        0.7862375900      -14.8681454603
 H        -0.6923937124        1.5319639430      -16.0383214441
 H        -3.3336527440        0.1136501404      -18.3291194121
 H        -2.2801384222        1.6000335333      -18.0324629447
 H        -3.4455759540        1.1202874916      -16.7378990510
 H        -0.0027374152       -1.6949899201      -23.1446607615
 H        -0.6998668747       -0.8829155299      -21.6969609016
 H        -0.3157994777       -2.5616227435      -21.7618925290
 H         2.6056987595       -2.6396855469      -22.9274397992
 H         1.8129555207       -3.5382002150      -21.6370871460
 H         3.1945681354       -2.6469029608      -21.2599396523
 H         6.0239779405        3.3322543329      -24.1942442438
 H         6.8491610531        2.4166286523      -22.7975377694
 H         6.9906465086        4.2278133084      -23.0790592027
 H         5.6346512643        5.3665704712      -21.0839481653
 H         6.3155382400        3.7594567238      -20.3960805232
 H         4.7439797062        4.1981364231      -20.0976845235
 H        -3.1623726020        5.4924366352      -23.0481767168
 H        -2.5443770281        4.8033996712      -21.5135827527
 H        -2.2933820900        4.1540265740      -23.1208620160
 H        -0.3312415278        7.5064381434      -23.9975850674
 H        -1.9270985813        7.0342899851      -24.3674672589
 H        -0.5333140796        6.0985729473      -24.8709135493
 Na       -4.5231810277       -3.5956809843       -3.1843423607
 Na        1.1521946065        2.2247365077      -20.8955139562
