232

 C        -2.1057657616        6.9177987298      -20.3218162589
 C        -1.1663079686        7.1341803329      -21.4754575029
 O        -0.4688817433        8.0553217956      -21.7296718073
 C        -1.1442069464        5.9204456691      -22.5002738661
 C         0.1913082542        5.2083664320      -22.0896300929
 O        -0.0311298085        4.3654915021      -21.2471210154
 C         1.4919105834        5.5094179430      -22.7502895587
 C         2.7457882893        4.9801016112      -22.0532172675
 C         3.9610089409        4.6838592257      -22.9046702106
 O         4.2727719531        5.1535994531      -23.9849024073
 C         4.9648276715        3.6772332792      -22.2185908631
 C         4.1349804770        2.4109122024      -21.9472003911
 O         3.4025003013        2.2363253546      -21.0061606678
 C         4.1968512652        1.3139973757      -23.0416655967
 C         3.5687130806        0.0289573030      -22.6083210450
 C         2.0597218149       -0.0319396732      -22.3065539723
 O         1.2851491309        0.8084781444      -22.6758010851
 C         1.4678675683       -1.3007542459      -21.5893089742
 C         1.4548487967       -0.8912717239      -20.0292807893
 O         1.4944250177        0.2597773054      -19.6665077314
 C         1.1025445843       -1.9051183770      -18.8847702755
 C         0.4931617142       -1.4159280302      -17.5737308616
 C        -0.8403399803       -0.6287175080      -17.9105276192
 O        -1.1066157830       -0.5043034784      -19.0531807013
 C        -1.8282253104       -0.1904221866      -16.7577193481
 C        -2.5548674577       -1.4408455260      -16.1721898019
 O        -2.0764346901       -2.5629404265      -16.2285724200
 C        -3.7942681569       -1.1195465907      -15.3662802712
 C        -3.7109534236       -1.5844335758      -13.8735011795
 C        -4.7518081926       -2.5776735947      -13.5443843269
 O        -5.6813895748       -2.6131534709      -14.2878731785
 C        -4.4761462146       -3.6318873636      -12.3712596405
 C        -5.1209661330       -2.8758439731      -11.1321153311
 O        -4.4109891772       -2.0988820591      -10.4743243524
 C        -6.5567043535       -3.0385848634      -10.6996026163
 C        -6.9397156115       -2.2866666084       -9.4171043905
 C        -7.3884230188       -3.2020483055       -8.2570944628
 O        -7.2817202700       -4.4325390157       -8.5216738015
 C        -7.7694175213       -2.6172745971       -6.8582865719
 C        -7.2419267741       -3.6649093858       -5.8571935077
 O        -6.2766769219       -3.3400815455       -5.1668570322
 C        -8.0406035596       -4.9206201011       -5.7203415484
 C        -7.2211679983       -6.2519998587       -5.4250413830
 C        -6.9584595383       -6.2404472405       -3.8829462392
 O        -7.1850252134       -5.2529702858       -3.2008064381
 C        -6.0184817966       -7.4505553497       -3.2491409000
 C        -4.4594639095       -7.0932924766       -3.4835621700
 O        -4.0632718221       -5.9393099381       -3.4850338027
 C        -3.3698460952       -8.3185451762       -3.7703933866
 C        -2.3905811644       -7.8792321871       -4.8352903736
 C        -2.9374261521       -7.6129499750       -6.2480162488
 O        -4.1237859936       -7.4766550859       -6.3004706108
 C        -2.0150607601       -7.2659414358       -7.4648624064
 C        -1.9412111139       -5.7639325012       -7.5768678230
 O        -0.9164625082       -5.1579465835       -7.2368865556
 C        -3.0378461893       -4.9520065267       -8.2059435559
 C        -2.8727990328       -3.3908763104       -7.8131562758
 C        -3.0622651488       -3.1367173079       -6.2458860425
 O        -3.7691264860       -3.8908309615       -5.6238718692
 C        -2.0396539971       -2.1703056877       -5.4726295574
 C        -2.9178898533       -1.0269398722       -4.7225223444
 O        -3.6897126952       -1.3238495499       -3.8444321785
 C        -2.7626478002        0.4741427932       -5.1562361922
 C        -3.5497412133        1.3446543547       -4.1928069215
 C        -2.6545584070        1.7369719727       -2.8871119481
 O        -1.4413953136        1.7789959425       -2.9376634202
 C        -3.4125225029        2.0387342359       -1.5292107694
 C        -3.8548215847        0.7883627448       -0.7574703774
 O        -5.0400195095        0.5350285276       -0.6398616323
 C        -2.8194099888       -0.1842856078       -0.1240707477
 C        -3.5442519456       -1.2361822287        0.7048277440
 C        -4.1834710523       -2.4131306180       -0.1803408328
 O        -3.5882801281       -2.5815560480       -1.2324171871
 C        -5.4716336737       -3.0508007872        0.3621372361
 C        -6.5342417662       -2.5091061527       -0.7644407184
 O        -6.4727770535       -2.9058225419       -1.9005272777
 C        -7.7202596711       -1.5896606543       -0.3264159255
 C        -8.9989596037       -1.6195039599       -1.2350656427
 C       -10.2318580030       -1.1382159548       -0.2739933795
 O       -10.0768445677       -0.6743357901        0.8143738257
 C       -11.7055747474       -1.2866890982       -0.8601534508
 C       -11.9359889602       -0.3897302532       -2.0551899789
 O       -11.2299895148       -0.4578873945       -3.0325195376
 C       -13.0779470448        0.6489136196       -1.9033127372
 C       -11.7744412912       -2.7567488015       -1.3862263174
 C       -12.6580370009       -1.0687329852        0.3920137130
 C        -5.5156029297       -4.5884387171        0.2483872341
 C        -5.9422803650       -2.5649453478        1.7773255494
 C        -2.4389090004        2.8499403474       -0.6043819799
 C        -4.7014441206        2.9487164324       -1.9783494669
 C        -1.3038287151       -3.0561381072       -4.3731625687
 C        -0.8761560618       -1.5082257304       -6.2773986573
 C        -0.6497320296       -7.8252552046       -7.2542290338
 C        -2.7016526518       -7.8626934640       -8.6998092043
 C        -6.1740475792       -7.4190322336       -1.7376945784
 C        -6.4387359291       -8.8007349773       -3.8390546919
 C        -7.3045895805       -1.1764708705       -6.4534634423
 C        -9.3868440507       -2.6087173711       -6.9732085493
 C        -5.2377646648       -4.9739314790      -12.7580484002
 C        -2.9767823530       -3.8868662293      -12.1413266783
 C        -1.1659782699        0.5155910385      -15.5926295281
 C        -2.8749435054        0.7079803904      -17.4983964223
 C         0.0174962597       -1.4634687393      -22.0604778209
 C         2.3211829599       -2.5066530859      -21.9326025743
 C         6.1771026784        3.2660772079      -23.1107798909
 C         5.5864495383        4.3283820730      -20.9559227072
 C        -2.3168104004        5.0031985456      -22.4223800161
 C        -1.1041159368        6.5005639978      -23.9757110775
 H        -2.1676339667        7.7667926633      -19.6255367316
 H        -1.7528041969        5.9842154302      -19.7750232286
 H        -3.1667393675        6.7954228787      -20.6531481643
 H         1.5868704034        6.6675146868      -23.0118770671
 H         1.4478403067        5.0823870869      -23.7494823497
 H         2.4677601735        4.1444170786      -21.4299935973
 H         2.9856100513        5.8836850220      -21.3673168606
 H         5.1620389043        1.1366259433      -23.3195491740
 H         3.5703375584        1.6712031966      -23.9334065664
 H         4.0092478447       -0.5272486170      -21.8041539110
 H         3.8166071849       -0.5885437937      -23.5290091634
 H         2.0840349422       -2.4081208532      -18.7562395463
 H         0.5614263632       -2.7618682632      -19.1545980985
 H         1.0482439282       -0.7942503588      -16.8656048467
 H         0.0791836002       -2.3224111033      -17.0945441392
 H        -4.7101103435       -1.4872722891      -15.8509093576
 H        -3.8149364805       -0.0927222324      -15.5196257976
 H        -3.8191508857       -0.8574941524      -13.1306664247
 H        -2.7197456709       -2.0340777606      -13.6590116360
 H        -6.8257989905       -4.0855856979      -10.6299665720
 H        -7.1420468692       -2.6858120061      -11.5265923878
 H        -7.7646970505       -1.5981313915       -9.7575613167
 H        -6.0385218362       -1.6473872352       -9.1375451211
 H        -8.4598022268       -5.1295726603       -6.7187642753
 H        -8.8791543650       -4.8872697865       -4.9036868500
 H        -6.2292188409       -6.2706500052       -5.9136453974
 H        -7.8668911789       -7.0991433750       -5.6843581285
 H        -3.9087655001       -9.2318548670       -4.0392158755
 H        -2.7218921084       -8.4190468849       -2.9007586080
 H        -1.4967437177       -8.3933936280       -4.6446139233
 H        -2.0121886263       -6.9633085079       -4.5694591696
 H        -3.9622993521       -5.2636295064       -7.6860486589
 H        -3.3115895665       -4.9721196310       -9.2419170150
 H        -3.6452250341       -2.9628416947       -8.3527542152
 H        -1.9422716112       -2.9449644137       -8.2369381901
 H        -3.1972873276        0.4903903523       -6.2099147831
 H        -1.7057200870        0.7117050624       -5.2050526142
 H        -4.3562012637        0.7866937703       -3.8347733543
 H        -3.8980891804        2.2124098282       -4.7575968816
 H        -2.2563953182        0.4237221850        0.6665994534
 H        -2.1329501866       -0.6627263294       -0.8048649095
 H        -4.3997816658       -0.7653936745        1.2518492947
 H        -2.7495893905       -1.5245007529        1.3820359191
 H        -7.2286781611       -0.5754762925       -0.2527979540
 H        -7.9008048256       -1.8314845781        0.7245548873
 H        -9.1437813326       -2.6757730285       -1.6824139936
 H        -8.9136513523       -0.9221357296       -2.1788191887
 H       -13.0500969834        1.4486020424       -2.6403314439
 H       -13.0420126590        1.0523967198       -0.8629207993
 H       -13.9958568267        0.2060573563       -2.0088656385
 H       -11.3296193109       -2.8765824768       -2.3474524016
 H       -12.8807952211       -3.0229155490       -1.3042350361
 H       -11.2908181353       -3.4546172634       -0.7307027973
 H       -12.5749718890       -1.9802758810        0.9680883368
 H       -13.6138527448       -0.8767270424       -0.0047100841
 H       -12.4833238878       -0.0985505994        0.8875235252
 H        -6.5027679075       -4.8648636427        0.0509399888
 H        -5.2597684178       -4.9719926803        1.2471888048
 H        -4.8939018083       -4.9329496154       -0.5931922061
 H        -6.7074162239       -3.2910604093        2.0371594231
 H        -6.2357607348       -1.5758109581        2.0107548234
 H        -5.0321151252       -2.8174872491        2.3861358675
 H        -1.5671519266        2.1692879735       -0.3487827435
 H        -2.9198941716        3.1765971921        0.3176873382
 H        -2.1135548833        3.8066003261       -1.0281321602
 H        -5.1582142073        3.0667451091       -1.0263465095
 H        -5.3638130066        2.2914060646       -2.5918895040
 H        -4.4998672851        3.9088298591       -2.4881553550
 H        -1.0532320315       -4.0500615818       -4.7861248274
 H        -1.9113913002       -3.1941853933       -3.4984610587
 H        -0.4740015411       -2.5139196131       -4.0952536209
 H        -0.3196713258       -2.3562938623       -6.7400435122
 H        -0.0994852748       -1.0337406277       -5.6261229376
 H        -1.2573104083       -0.7469961525       -6.9721565280
 H        -0.2301211092       -7.3576419865       -6.3975402919
 H         0.0327954188       -7.7268240878       -8.0759907648
 H        -0.6664877110       -8.9282910547       -7.2636314049
 H        -3.7004266618       -7.4780151744       -8.8592947291
 H        -2.8463065974       -8.9392742565       -8.5233291630
 H        -2.1883820791       -7.5659574787       -9.6158264432
 H        -5.4577815316       -8.1195660776       -1.2618292578
 H        -7.2252118816       -7.5700613875       -1.3980896548
 H        -5.8890318040       -6.4049254413       -1.3561415742
 H        -7.4798638110       -8.9356805432       -3.5520340467
 H        -5.7883505112       -9.6545704429       -3.5384129909
 H        -6.3960707783       -8.6684650065       -4.8537019692
 H        -7.7361622773       -0.5054634241       -7.1857799758
 H        -6.1724686903       -1.1532394363       -6.5410324105
 H        -7.6518743748       -0.7799331151       -5.5379185348
 H        -9.8029463134       -3.5862888280       -7.2501067989
 H        -9.5303044448       -1.9779529176       -7.8680866519
 H        -9.9199660631       -1.9394973999       -6.2797974950
 H        -5.5454791540       -5.4942937100      -11.8845188738
 H        -4.7298909540       -5.6298065353      -13.4612323363
 H        -6.1865702346       -4.6874710541      -13.1965705048
 H        -2.5968294544       -2.9345541599      -11.8342112328
 H        -2.4123393601       -4.3232877636      -13.0226388984
 H        -2.7190639726       -4.4740414711      -11.2819938913
 H        -0.4066601595       -0.0507308870      -14.9256319627
 H        -1.8571499725        0.9706479845      -14.8898254215
 H        -0.6427375256        1.3569252616      -16.0445976995
 H        -3.3587140986       -0.0184304305      -18.1179492867
 H        -2.1804610132        1.3348028542      -18.0493758470
 H        -3.4604090778        1.3127854989      -16.8086678829
 H        -0.1756079664       -1.5872671338      -23.1745660128
 H        -0.5423278593       -0.6378777559      -21.7324500328
 H        -0.5412415342       -2.3300606488      -21.7181341318
 H         2.2148204757       -2.6733780131      -22.9893651603
 H         2.0964803383       -3.4465027353      -21.3734868518
 H         3.3570876860       -2.3284027570      -21.7116741600
 H         6.0230238633        2.9204828432      -24.1818768172
 H         6.7909154899        2.4914687672      -22.5366646045
 H         6.8511838099        4.1304052794      -23.3311136286
 H         5.9084825174        5.3794345924      -21.0617259262
 H         6.3023985536        3.5837581613      -20.5029166058
 H         4.7541536383        4.2676899281      -20.2344631480
 H        -3.2546761672        5.5568179821      -22.4833162286
 H        -2.2573593302        4.4365800105      -21.5247037208
 H        -2.5294956008        4.3980435457      -23.2625296586
 H        -0.4499336662        7.3054384654      -24.2312506412
 H        -2.1229459413        6.7099659981      -24.4104484113
 H        -0.6048100070        5.7464244297      -24.6338869249
 Na       -4.7322302412       -3.5792265205       -3.2009042127
 Na        1.0315270867        2.2635242751      -21.0596403892
