232

 C        -1.9981212845        7.0563472579      -20.1898834359
 C        -1.2288931673        7.1506312091      -21.5251034514
 O        -0.4699912823        8.0923732369      -21.6770576735
 C        -1.2193786659        5.8234924824      -22.4895901222
 C         0.0820944853        5.1092203004      -22.0621348443
 O         0.0213356509        4.2521143697      -21.1956037747
 C         1.4323844082        5.5901368483      -22.7102232585
 C         2.8189724826        5.1322503033      -22.0292595753
 C         4.0016634005        4.7475337699      -22.9765593139
 O         4.2219914078        5.1218166669      -24.0771897894
 C         5.0045026372        3.6166685071      -22.2352633749
 C         4.1804010288        2.3474667352      -22.0415778199
 O         3.5177120621        2.1669551116      -21.0349024386
 C         4.1876878834        1.2528767861      -23.2040294746
 C         3.5585920194       -0.0217285598      -22.6728338061
 C         2.0338993578        0.0295257680      -22.3738312707
 O         1.3900158220        0.9458010212      -22.7760093722
 C         1.4215155714       -1.1766804999      -21.5589138487
 C         1.3183232500       -0.8614814275      -19.9747480715
 O         1.5625015470        0.3351652403      -19.6351646705
 C         1.0893458364       -2.0052754934      -18.8666913844
 C         0.5782599181       -1.3678990844      -17.6056460515
 C        -0.8250508978       -0.7013423236      -17.8775313060
 O        -1.1058942034       -0.4624327935      -19.0305458006
 C        -1.8122670726       -0.1820827192      -16.8183710254
 C        -2.5494258394       -1.5271681888      -16.1781257264
 O        -2.1820161952       -2.6583911737      -16.3300333158
 C        -3.7709914298       -1.1837213856      -15.2861221769
 C        -3.5017986843       -1.6500456237      -13.9124016319
 C        -4.7455467317       -2.6281954796      -13.5527125915
 O        -5.7842688716       -2.6104594237      -14.1794159126
 C        -4.6214549624       -3.5477740966      -12.3505805186
 C        -5.1937260222       -2.8752748666      -11.0878571592
 O        -4.4460929165       -2.0539628787      -10.5127563083
 C        -6.6925043951       -3.0799246121      -10.7565029039
 C        -7.0062928437       -2.2671746424       -9.4918081088
 C        -7.3471108297       -3.2229718913       -8.3291058773
 O        -7.3932173829       -4.4539146053       -8.4210270721
 C        -7.8085390237       -2.6250171349       -7.0440688488
 C        -7.3534782865       -3.6893743599       -5.8287773507
 O        -6.3399163968       -3.5045262018       -5.2265853781
 C        -8.1484770974       -5.0021497322       -5.6656096399
 C        -7.0955943054       -6.1237274072       -5.2818067547
 C        -6.7655545202       -6.2516489074       -3.7919171415
 O        -7.2967837591       -5.4953979106       -2.9757119609
 C        -5.9133139157       -7.4624499039       -3.2712198882
 C        -4.5139723033       -7.1481819016       -3.6357228223
 O        -4.0833464308       -5.9915623467       -3.6517388510
 C        -3.4471233153       -8.2279928643       -3.8290822938
 C        -2.2756037945       -7.7778173071       -4.7643150770
 C        -2.9684221237       -7.4271504811       -6.1593814079
 O        -4.1667369352       -7.5177526160       -6.3678403706
 C        -2.0154585710       -7.2439166793       -7.4454047625
 C        -1.8486504402       -5.6407935756       -7.5617955979
 O        -0.8249014842       -5.1346100798       -7.1628510663
 C        -3.0866917578       -4.7945257764       -8.1497877557
 C        -2.8198757158       -3.2806248794       -7.6890875099
 C        -2.8701079840       -3.2193932339       -6.2080447064
 O        -3.6874886343       -3.8439260815       -5.5766463743
 C        -1.9131954476       -2.1277751653       -5.4235428926
 C        -2.8933167006       -1.0073445181       -4.7845256522
 O        -3.6871493395       -1.3805910924       -3.9564228391
 C        -2.7499411443        0.4462124959       -5.1664463140
 C        -3.4265546304        1.3956071630       -4.1627612051
 C        -2.6862667056        1.6713705640       -2.8799307454
 O        -1.4804481468        1.8611142834       -2.9265764702
 C        -3.4116708873        2.0230529533       -1.4825356603
 C        -3.9892783455        0.8421343575       -0.7463753957
 O        -5.1668790134        0.6127753003       -0.6149359400
 C        -2.8562532443       -0.0840324998        0.0058619654
 C        -3.4989545494       -1.2471711939        0.7514503618
 C        -4.1507276827       -2.3632993229       -0.1990856932
 O        -3.6568436800       -2.7754784541       -1.2017066071
 C        -5.5139241265       -3.0794437645        0.2711136213
 C        -6.5549700553       -2.5612531778       -0.8168153797
 O        -6.3887326513       -2.7556547949       -2.0184551679
 C        -7.7161348183       -1.5241196615       -0.3271257374
 C        -9.0359075058       -1.5526131086       -1.1794141611
 C       -10.1233189362       -1.1338836853       -0.2402916226
 O        -9.8681544897       -0.6063171106        0.7955370406
 C       -11.6787818456       -1.3420616065       -0.7081697406
 C       -11.8127894385       -0.3635172756       -1.9268675462
 O       -11.1493991917       -0.6219511636       -2.9111692081
 C       -13.0343504747        0.5564999846       -2.0290977704
 C       -11.8780899745       -2.7127546083       -1.3139005371
 C       -12.6997390375       -0.9771374453        0.4015435298
 C        -5.3641793583       -4.6136284870        0.1264427882
 C        -5.8419028737       -2.4908241096        1.6529652693
 C        -2.4417189365        2.7334776119       -0.4941947030
 C        -4.6389765608        2.9046094035       -1.8465487578
 C        -1.2886884732       -2.9242276855       -4.2791536272
 C        -0.9290392748       -1.4578375954       -6.3302341920
 C        -0.5797220029       -7.8496114653       -7.2888345720
 C        -2.6569034675       -7.8906787251       -8.7637930552
 C        -6.1382442050       -7.5261032888       -1.7175472448
 C        -6.2445632389       -8.9141134180       -3.7640096494
 C        -7.3009251819       -1.3221633622       -6.5602051555
 C        -9.4147969596       -2.6256008257       -7.0615603164
 C        -5.3041527125       -4.8966162739      -12.7046245290
 C        -3.1416913674       -3.8748246020      -12.1874250061
 C        -1.1862993016        0.5395588229      -15.6291640411
 C        -2.9169496965        0.7538577618      -17.4356977146
 C        -0.0240113835       -1.3355493834      -22.0103056554
 C         2.2816165793       -2.4988170852      -21.8328536655
 C         6.1668459149        3.3481474431      -23.2250728272
 C         5.5702558175        4.3128814419      -20.9455910783
 C        -2.4326218379        4.9084994609      -22.3451634734
 C        -1.0826403933        6.3683383184      -23.9684394401
 H        -1.6391061105        7.8868571838      -19.5535901489
 H        -1.6743618244        6.1033608034      -19.6510001388
 H        -3.0943340752        7.1732190378      -20.1663246882
 H         1.4321816573        6.7114515109      -22.8066496425
 H         1.4193802309        5.2933810682      -23.7922221195
 H         2.5944989922        4.2366144259      -21.4270637115
 H         2.9742885174        5.9714147733      -21.3816430084
 H         5.2739657795        1.0229385991      -23.3633422657
 H         3.6805637127        1.5804615023      -24.1258074213
 H         3.9580916882       -0.4323002212      -21.6566300178
 H         3.9142557172       -0.7913128972      -23.3753259839
 H         2.0059601296       -2.5410944910      -18.8359382295
 H         0.4219866429       -2.8624564266      -19.1987522982
 H         1.1163284242       -0.3917225244      -17.3887638663
 H         0.5143155435       -1.9926939717      -16.7297117842
 H        -4.6092122806       -1.8579478415      -15.6251303660
 H        -4.1876849660       -0.2002682146      -15.5285261234
 H        -3.5850634871       -0.9042180313      -13.1050948135
 H        -2.5138006857       -2.0629981067      -13.7635163092
 H        -6.9077700944       -4.0805869471      -10.5846764777
 H        -7.1944251061       -2.8249747316      -11.6399975142
 H        -7.8210553256       -1.3988318819       -9.6018348159
 H        -6.0321842591       -1.7817134726       -9.2881617080
 H        -8.6330053389       -5.3658093834       -6.5585579623
 H        -8.8457040763       -5.0949882707       -4.8025330496
 H        -6.1587283238       -5.9504202318       -5.7301525415
 H        -7.5717820235       -7.0891987895       -5.5963460833
 H        -3.9559803657       -9.0351012904       -4.4121189230
 H        -3.0895887780       -8.5805221396       -2.8430013299
 H        -1.5853406694       -8.5625308779       -4.8296865315
 H        -1.5122482111       -7.0352815248       -4.4561007006
 H        -4.1104433960       -5.1479361282       -7.9187030345
 H        -3.0916318684       -4.7169582537       -9.2804285959
 H        -3.5408263231       -2.6099406452       -8.1412424813
 H        -1.8849596967       -3.0115907446       -8.0460583587
 H        -3.2578079223        0.4610496085       -6.1590770345
 H        -1.6566413403        0.7438498245       -5.3183112992
 H        -4.4965617220        1.0297254778       -3.8482005379
 H        -3.4852613951        2.2989710220       -4.7102393291
 H        -2.2303631261        0.4596315206        0.7504528901
 H        -2.2284159656       -0.5460025453       -0.8256475548
 H        -4.2335250215       -0.8612746509        1.4146429423
 H        -2.6820066383       -1.7305990054        1.3042911077
 H        -7.2656022451       -0.5350595641       -0.3578719008
 H        -7.8621579040       -1.6665415538        0.7136093379
 H        -9.3409243771       -2.5829736149       -1.6133743311
 H        -8.9386698553       -0.8868414810       -2.0636316098
 H       -13.0510145115        1.1590563258       -2.9550167962
 H       -13.1232303438        1.2071730870       -1.1416187403
 H       -13.9268045263       -0.0785454856       -2.0500502473
 H       -11.3868854874       -2.6794378366       -2.3430882289
 H       -12.8823462864       -2.9557705957       -1.3497454877
 H       -11.4607313021       -3.5395710596       -0.7383421106
 H       -12.6019906063       -1.6259928491        1.3075287267
 H       -13.6923425456       -0.9644110702       -0.0982448282
 H       -12.6304629044        0.0588733764        0.5529216880
 H        -6.3617362973       -5.0835626443        0.2905000335
 H        -4.8051630751       -4.8249306854        1.0260337436
 H        -4.9836988983       -4.9327177791       -0.8311155844
 H        -6.7072271673       -2.9819506808        2.0793764333
 H        -6.0986297389       -1.4728535550        1.6452134553
 H        -4.9320811964       -2.7277688064        2.2570174827
 H        -1.5198313862        2.1844160621       -0.5642651535
 H        -2.8592447951        2.6001130238        0.5756669236
 H        -2.2822085796        3.7737750728       -0.5466076802
 H        -5.2082794174        3.1063241042       -0.8785527577
 H        -5.2189583924        2.3131708562       -2.5733531609
 H        -4.3164490017        3.8439108297       -2.4010683734
 H        -1.0432439367       -3.9850019558       -4.5853313263
 H        -1.9636801696       -2.9539892663       -3.4441059302
 H        -0.3723883361       -2.3572538852       -3.9941417190
 H        -0.2623831459       -2.2445530103       -6.7677153428
 H        -0.2370076631       -0.7758317051       -5.8269384040
 H        -1.5548838651       -0.8333872890       -7.0399551986
 H        -0.0566131815       -7.6166612636       -6.3823268462
 H         0.0415599384       -7.3821967318       -8.0566386684
 H        -0.4832413631       -8.8415997137       -7.6794724835
 H        -3.5448288776       -7.4047573285       -9.1706566700
 H        -2.9488924502       -8.9353902970       -8.5349781763
 H        -1.9418730270       -7.7594664911       -9.6005271928
 H        -5.3152692829       -7.9564625019       -1.1697281014
 H        -7.0629505628       -8.0837258985       -1.5733357464
 H        -6.3787840208       -6.5875550246       -1.3136585076
 H        -7.2757142843       -9.0670134922       -3.7960730855
 H        -5.7969222050       -9.6044549983       -3.1214507028
 H        -5.8442737166       -8.9693402187       -4.7652183005
 H        -7.6421164595       -0.5099884263       -7.3267158095
 H        -6.2097020483       -1.3548361526       -6.4979268470
 H        -7.7575944724       -0.9386253039       -5.5833234633
 H        -9.7267551948       -3.6917508472       -7.2179893934
 H        -9.7126853487       -2.1249790093       -7.9634749737
 H        -9.9061112522       -1.9741904161       -6.3268839618
 H        -5.5408812674       -5.3448273092      -11.7123269875
 H        -4.7207176821       -5.5907155812      -13.4147107903
 H        -6.2458595953       -4.7643329700      -13.1487504760
 H        -2.7082098445       -3.0115368244      -11.5714714603
 H        -2.6743124464       -3.8824538430      -13.2118627300
 H        -2.8243270584       -4.7418256542      -11.7709752483
 H        -0.7190734407       -0.2027075885      -15.0590429551
 H        -1.9584675619        0.9856666322      -14.9231122209
 H        -0.4434312544        1.3251992135      -15.7910029192
 H        -3.6219446479        0.0920662657      -17.9289407664
 H        -2.3500119366        1.4113052864      -18.0084243346
 H        -3.2823195347        1.3085133129      -16.6280774029
 H        -0.1839935760       -1.6116318201      -22.9823621201
 H        -0.5956868002       -0.4543640856      -21.8246199038
 H        -0.5876801905       -2.1533312732      -21.5107796631
 H         1.9182841382       -2.8552216274      -22.7881306338
 H         1.9616442888       -3.2817605003      -21.0897317229
 H         3.3785044765       -2.5091190190      -21.8024073237
 H         5.7960786072        3.1096491154      -24.1698856326
 H         6.9032619385        2.6878222942      -22.9344260381
 H         6.6218957790        4.3309800292      -23.5034177248
 H         6.0303716925        5.2565921335      -21.2237072397
 H         6.2563458717        3.6113736370      -20.3862156599
 H         4.6801076984        4.5315209209      -20.1967114901
 H        -3.3682004464        5.2533182564      -22.0710501151
 H        -2.0448459816        4.1639324466      -21.6207503694
 H        -2.7375995202        4.3969174130      -23.2578815404
 H        -0.3330912301        7.1191001326      -24.2547769526
 H        -2.1425420135        6.6976315120      -24.2855296406
 H        -0.7588906213        5.6523979169      -24.6798466934
 Na       -4.9116937477       -3.6223624573       -3.3402448233
 Na        0.9137270351        2.2834930614      -21.1390678628
