232

 C        -1.8125164261        7.0998816896      -20.1494204153
 C        -1.1408844848        7.0812981719      -21.4675362458
 O        -0.5164127058        7.9892525362      -21.8955528424
 C        -1.1274592730        5.7919168759      -22.3456776494
 C         0.2397655859        5.0843756395      -22.0543653751
 O         0.2486389283        4.1472623844      -21.2597098687
 C         1.4826747819        5.6391526428      -22.6771630355
 C         2.7463843024        5.2402600895      -21.9573472734
 C         3.7575047547        4.7307343988      -22.9405833641
 O         3.7329639647        5.0645502491      -24.1018809778
 C         4.9492980052        3.6503064079      -22.4703197654
 C         4.1873288088        2.3324065712      -22.2451721935
 O         3.6009063969        2.2249174633      -21.1734208805
 C         4.2143861151        1.1739081194      -23.2649939380
 C         3.6518432451       -0.1651372756      -22.7196826990
 C         2.1672328723       -0.0757942052      -22.4382110346
 O         1.4822876018        0.8827157721      -22.8590046489
 C         1.3169802986       -1.1072333710      -21.5035901278
 C         1.3031728540       -0.4898772682      -19.9823006362
 O         1.4771277033        0.6095950990      -19.6445549682
 C         1.1487766183       -1.6657134836      -18.9648035496
 C         0.5259391964       -1.2222270633      -17.6536887887
 C        -0.8887630436       -0.5825299468      -18.0526796407
 O        -1.2268658070       -0.4438241271      -19.2050292972
 C        -1.7436982426       -0.1805391056      -16.8835409358
 C        -2.5397915235       -1.4227067648      -16.3380695464
 O        -2.2349342085       -2.5909060952      -16.5403607186
 C        -3.7545687033       -1.1899915554      -15.4418064777
 C        -3.6684241937       -1.8365026567      -14.0046495801
 C        -4.8461308872       -2.7488069583      -13.6182640183
 O        -5.9715009633       -2.5139706365      -13.9478143152
 C        -4.6856516423       -3.6993938633      -12.2833533764
 C        -5.2026037276       -2.8840780000      -10.9467236525
 O        -4.4911029331       -2.0235035587      -10.5003138771
 C        -6.7916258672       -3.0297541724      -10.7502598671
 C        -7.2497679211       -2.3270911679       -9.5198283682
 C        -7.5868343003       -3.3998915065       -8.4647194741
 O        -7.3568206295       -4.6057464330       -8.5895204987
 C        -8.0613090612       -2.8646178295       -7.0786035375
 C        -7.4727152618       -3.7944328409       -5.8388151836
 O        -6.4423318084       -3.3927159594       -5.2629039578
 C        -8.1069928440       -5.1595929255       -5.5064066627
 C        -6.9962628594       -6.2225795880       -5.1068829576
 C        -6.9028899575       -6.4929257251       -3.5839279760
 O        -7.4620768900       -5.7780578439       -2.7846944050
 C        -5.8338692508       -7.6292547814       -3.1564684318
 C        -4.3875247608       -7.1497077664       -3.6514818927
 O        -4.1594266496       -5.9690948322       -3.7378859743
 C        -3.2712279922       -8.1632934076       -3.8595768408
 C        -2.2446581786       -7.6168603877       -4.8503348428
 C        -2.8945405933       -7.4582177896       -6.2356013394
 O        -4.0804472128       -7.4082728570       -6.5238279643
 C        -1.9240174675       -7.1943886685       -7.5164065572
 C        -1.7289688964       -5.5382894718       -7.4353295868
 O        -0.6875783665       -5.0397035192       -7.0226834916
 C        -2.9776426455       -4.7451708825       -8.0231657511
 C        -2.7427342148       -3.2825389560       -7.6020517342
 C        -2.7168309214       -3.0633636153       -6.0803971540
 O        -3.4276250076       -3.8140924466       -5.4759385975
 C        -1.8781862500       -1.9858555494       -5.3502290342
 C        -2.9205277402       -1.0527933225       -4.7188203291
 O        -3.8837699212       -1.4587125758       -4.1002912037
 C        -2.6662115860        0.4961328807       -4.9236967983
 C        -3.5203212053        1.3617284126       -3.9791636268
 C        -2.7141529116        1.7569042272       -2.7460857781
 O        -1.4958882614        1.7182359605       -2.7967561462
 C        -3.4044643867        2.1100973970       -1.4728168807
 C        -3.9872043039        0.7474485943       -0.6771003573
 O        -5.1856686902        0.5070582483       -0.6030909321
 C        -2.8438624797       -0.1503094223       -0.1975740675
 C        -3.3132091397       -1.4231088256        0.6302407184
 C        -4.0579693997       -2.3992008288       -0.3055160530
 O        -3.5692529319       -2.8038075759       -1.3710233925
 C        -5.4859138469       -2.9119200796        0.1232272962
 C        -6.5916861102       -2.3047604520       -0.9209734685
 O        -6.5012040467       -2.6015052518       -2.0842029041
 C        -7.6850195189       -1.4210898482       -0.3186186832
 C        -9.0058010114       -1.6194734913       -1.0095721002
 C       -10.2337747708       -1.0840049066       -0.2176367575
 O        -9.9561164356       -0.4986575003        0.8229097671
 C       -11.6109265755       -1.2861984781       -0.6535771640
 C       -11.7339926966       -0.4677943334       -2.0729293290
 O       -10.8597154859       -0.6102968914       -2.8875258467
 C       -12.9107498042        0.4708009604       -2.2198168813
 C       -11.9201559379       -2.8288596216       -0.8500929722
 C       -12.5163719427       -0.8435554946        0.5850732390
 C        -5.3183143029       -4.5442666011       -0.0344604120
 C        -5.9456547555       -2.7317687462        1.5906628578
 C        -2.4151385053        2.8076549127       -0.4936643472
 C        -4.6807749658        3.1151814722       -1.6809766775
 C        -1.0944272590       -2.6238636370       -4.1894066725
 C        -0.8326255819       -1.4084423918       -6.3009960700
 C        -0.5177688980       -7.7511627086       -7.2929197028
 C        -2.6715381738       -7.6434095260       -8.8087156072
 C        -5.7525366195       -7.8802123587       -1.6374974001
 C        -6.2983038989       -8.8112288522       -3.9561465121
 C        -7.3747380810       -1.4502692915       -6.7611916639
 C        -9.5830780054       -2.6215413034       -7.0776024350
 C        -5.5194084475       -4.9441799682      -12.5785708107
 C        -3.2917625617       -4.1425052190      -11.8924627910
 C        -0.9320921113        0.3708235017      -15.6872284742
 C        -2.8492082752        0.8345604362      -17.5011944039
 C        -0.1618988281       -1.0891651825      -21.9160154885
 C         1.9171695077       -2.4830600768      -21.6006017827
 C         6.0708078898        3.7750459747      -23.4411252219
 C         5.4687375927        4.0270677249      -21.0013816147
 C        -2.3498547491        4.9315727264      -22.0478391051
 C        -1.2609266736        6.2975772083      -23.8046772302
 H        -1.3711453378        7.6628097064      -19.3615601373
 H        -1.9535017850        6.1392801065      -19.7506494388
 H        -2.7694128024        7.5436683526      -20.3444118099
 H         1.3736628248        6.7014476250      -22.8373346648
 H         1.4823998904        5.3067910990      -23.6785475351
 H         2.4541414051        4.4995414287      -21.2464153426
 H         3.0566297117        6.1807642043      -21.4557289521
 H         5.2085913353        0.9894086493      -23.6092430626
 H         3.5611815484        1.6166462353      -24.0636738909
 H         4.1758037519       -0.5586744799      -21.9281965461
 H         3.7516703272       -0.9680085429      -23.4700699926
 H         2.1763370873       -2.0878294885      -18.7002156452
 H         0.7871700943       -2.5325310441      -19.4264561047
 H         1.2045047787       -0.4939247785      -17.2845890813
 H         0.3760993496       -2.0259154048      -16.9031806795
 H        -4.6386168692       -1.5004897215      -16.0292674286
 H        -3.9770420295       -0.1201497126      -15.3837324087
 H        -3.5094316299       -0.9675037827      -13.3560135904
 H        -2.7936588657       -2.4950552596      -13.7707019569
 H        -7.1549764099       -4.1195563292      -10.7931863168
 H        -7.2607709823       -2.5273054332      -11.6635291364
 H        -7.9923232289       -1.6510860457       -9.6382097893
 H        -6.4138145215       -1.7350577913       -9.1302483569
 H        -8.5199548747       -5.6248769818       -6.3882962936
 H        -8.8444803165       -5.1552154949       -4.7428164052
 H        -5.9899183342       -5.7421795641       -5.3285606587
 H        -7.2384859744       -7.1020421225       -5.6640996204
 H        -3.6890298411       -9.1250797818       -4.1331287968
 H        -2.8078937524       -8.2248613276       -2.8761610831
 H        -1.4228695251       -8.4497562736       -4.9714998564
 H        -1.5224290396       -6.8892407589       -4.4297875687
 H        -3.9228593828       -5.1141140404       -7.5883536178
 H        -3.0808941168       -4.9246675153       -9.0884787326
 H        -3.5249359647       -2.5693899870       -7.9856474235
 H        -1.7136298084       -2.9737010787       -8.0934351152
 H        -2.9815298963        0.5988737385       -5.9575561162
 H        -1.6528619241        0.7716311546       -4.8260684973
 H        -4.3608677019        0.8519175409       -3.6541428922
 H        -3.8347730144        2.2717903880       -4.6120597719
 H        -2.2804342213        0.4452328793        0.5296960279
 H        -2.3852903091       -0.3503643744       -1.1251947836
 H        -3.8559138895       -1.0345549815        1.5497638230
 H        -2.4851090195       -2.0715666672        0.9060442889
 H        -7.2989189345       -0.4107519078       -0.1993960680
 H        -7.7886657287       -1.7604784850        0.7100971845
 H        -9.1339426865       -2.6367618422       -1.1233966136
 H        -8.9267848702       -1.2097938174       -1.9911521291
 H       -13.0334056786        0.6728423640       -3.2939928652
 H       -12.7727009045        1.4449155165       -1.6972652989
 H       -13.8101243984       -0.0331176243       -1.9087034915
 H       -11.1871195148       -3.3332920846       -1.4217627736
 H       -12.9465871140       -3.0504251171       -1.3716663607
 H       -12.1200786039       -3.2864069871        0.1310404801
 H       -11.9765500239       -1.2803609675        1.4142872000
 H       -13.5501116958       -1.0974009153        0.5265221891
 H       -12.4534621708        0.2893754533        0.7136340503
 H        -6.0389049649       -5.0190927850        0.5930295506
 H        -4.3188669667       -4.8034035428        0.3531875872
 H        -5.6224769098       -4.7925912219       -1.0640978562
 H        -6.9439172270       -3.1897656161        1.7380910085
 H        -6.1711809592       -1.6641714313        1.7380027108
 H        -5.2935587929       -3.3251474119        2.2566551487
 H        -1.3767856168        2.4383157812       -0.6619555263
 H        -2.6563441066        2.8088398383        0.5061783381
 H        -2.3211020373        3.8908608132       -0.7782273282
 H        -4.9299248530        3.4872961242       -0.7272290781
 H        -5.4728199457        2.6416262110       -2.2679493255
 H        -4.3598382869        3.8596297565       -2.3745117072
 H        -0.2411637608       -3.1425609965       -4.6469006612
 H        -1.7131628274       -3.3296643354       -3.5537290431
 H        -0.6784331074       -1.8003727420       -3.6311547287
 H        -0.1637786299       -2.1887550137       -6.5459092997
 H        -0.2990790028       -0.7472464891       -5.6077726685
 H        -1.1793518325       -0.8352073768       -7.0875251745
 H        -0.0497798496       -7.2701532601       -6.4390580967
 H         0.2107314584       -7.5693227662       -8.0895875468
 H        -0.5472583553       -8.8714983854       -7.2265150126
 H        -3.6058284781       -7.1117609874       -8.9578404821
 H        -2.9127494612       -8.6950644811       -8.7255076637
 H        -2.1077033603       -7.4542281920       -9.7077424097
 H        -4.7482762670       -8.0987012267       -1.3573838648
 H        -6.3703635099       -8.6362542558       -1.2163650163
 H        -6.0914627620       -6.9683073385       -1.1469270939
 H        -7.4002166640       -8.9816878603       -3.7611403435
 H        -5.8399536118       -9.8057576140       -3.6185082537
 H        -6.1487008329       -8.5584657611       -4.9798200594
 H        -7.6575292884       -0.6380617639       -7.4289556025
 H        -6.2509418135       -1.4686845983       -6.6371510851
 H        -7.7074908323       -1.2067803695       -5.7753869171
 H       -10.1243110396       -3.4760665034       -7.3529216135
 H        -9.8740721329       -1.7718293073       -7.7258024239
 H        -9.8369992120       -2.3152907026       -6.0806388456
 H        -5.5780096539       -5.7364572634      -11.8300674579
 H        -5.1670103384       -5.2538995552      -13.5247894593
 H        -6.5988436803       -4.6478595705      -12.8273800235
 H        -2.6438110550       -3.3659845444      -11.5759668338
 H        -2.7395181051       -4.8092614693      -12.5821418320
 H        -3.4351585945       -4.8817215422      -11.0243795369
 H        -0.1237317844       -0.4291726131      -15.3789982210
 H        -1.6140772810        0.5675148107      -14.8903656957
 H        -0.3704294703        1.2849726792      -15.8649399772
 H        -3.3804254368        0.0505800071      -17.9337366144
 H        -2.4104609634        1.6491399261      -18.0975760999
 H        -3.4337466744        1.2642022275      -16.6776659933
 H        -0.3262553239       -1.6172797469      -22.9295484969
 H        -0.6508961771       -0.1414992075      -22.0293849492
 H        -0.7918854181       -1.6898936519      -21.3172079946
 H         2.2036198490       -2.7167023808      -22.6416619048
 H         1.2010729650       -3.2457103970      -21.3315206037
 H         2.7887085935       -2.6194727105      -20.9638048909
 H         5.7004337568        3.6784986256      -24.4794560681
 H         6.8913521181        3.0647107529      -23.2359800909
 H         6.5614996851        4.7035692734      -23.3476612628
 H         5.9762030264        5.0126191267      -21.1826978927
 H         6.2755438375        3.3971603786      -20.6255421601
 H         4.6347806029        4.1876280325      -20.3368110857
 H        -3.2566933124        5.6279840677      -21.8993602114
 H        -2.3178592840        4.2463000662      -21.2190164901
 H        -2.7287720590        4.3627685937      -22.9199526825
 H        -0.4348411587        6.8599141332      -24.0658197644
 H        -2.1879633636        6.7538969382      -24.0061860216
 H        -1.0959076489        5.5430298955      -24.5778857902
 Na       -4.9244161693       -3.7453525551       -3.6157176187
 Na        1.0619831985        2.0488559492      -20.9813610935
