232

 C        -1.6999727588        7.4702146715      -20.0180517301
 C        -1.1427040580        7.2587650642      -21.4017725492
 O        -0.4198623905        8.0686848678      -21.9033651430
 C        -1.3266469380        5.8624948730      -22.1250600987
 C         0.1394238534        5.1537427440      -21.9592103179
 O         0.1393758545        4.0654535872      -21.4373579654
 C         1.4170124243        5.9003366641      -22.3144879533
 C         2.7897255012        5.2673020562      -22.0018495791
 C         3.5344791737        4.5573581026      -23.1777881010
 O         3.0962031533        4.4630112707      -24.2752707432
 C         4.8337887195        3.6754550233      -22.6978227557
 C         4.2106027591        2.2718536590      -22.2898601995
 O         3.7880388869        2.1258731014      -21.1560436344
 C         4.3691122468        1.1061753964      -23.2078455609
 C         3.6673530929       -0.1774178047      -22.6897636619
 C         2.2266874442        0.0043467399      -22.4517040854
 O         1.6118488872        0.9822377885      -22.9717539803
 C         1.3599912192       -0.9626530506      -21.6207733279
 C         1.3666076280       -0.4878776365      -20.0490482740
 O         1.4457884170        0.6521709104      -19.7695239941
 C         0.9941430517       -1.6337250871      -19.0679623899
 C         0.4603158880       -1.1698861859      -17.6960942216
 C        -0.9433802098       -0.5133492005      -17.9651769613
 O        -1.3672456933       -0.4539547236      -19.0656719260
 C        -1.8271434343       -0.0515489693      -16.7546005942
 C        -2.5876814141       -1.3827821590      -16.3785226020
 O        -2.1302263055       -2.4354181294      -16.7512048556
 C        -3.7177566413       -1.3686378321      -15.3672323102
 C        -3.6746013969       -2.5530123875      -14.3906340299
 C        -4.9052367042       -2.7758755199      -13.5450239382
 O        -5.9467917246       -2.2947466311      -13.9303550982
 C        -4.9084665366       -3.7599107921      -12.3405737363
 C        -5.6504374002       -3.0383262773      -11.0554323822
 O        -4.8748135690       -2.6510133078      -10.1976707780
 C        -7.1455997299       -3.0623620234      -10.8301451725
 C        -7.5397095206       -2.3873471238       -9.5025007191
 C        -7.6386899810       -3.4513735122       -8.3278182883
 O        -7.6252692420       -4.6715382263       -8.5706049654
 C        -8.1338671916       -2.9053726955       -6.9585114959
 C        -7.4125214190       -3.7138960527       -5.7046911585
 O        -6.3190537603       -3.3066697947       -5.2760704857
 C        -7.8718008272       -5.0746150469       -5.2016795329
 C        -6.8528395890       -6.2639465708       -5.0611076069
 C        -6.7643924122       -6.7044197194       -3.6345323340
 O        -7.5989495150       -6.2731442841       -2.8219871961
 C        -5.6294254721       -7.7876594169       -3.2994366606
 C        -4.2844992525       -7.1818631800       -3.6214617880
 O        -4.2491471570       -5.9526858032       -3.4686596945
 C        -3.1081586052       -8.1622423601       -3.9671779068
 C        -2.0957207914       -7.5012388799       -4.9360711122
 C        -2.7266936825       -7.3574950234       -6.3151169818
 O        -3.8857272125       -7.4413115708       -6.5511029844
 C        -1.7879941283       -6.9895503950       -7.5349962321
 C        -1.5113409278       -5.4802956946       -7.4722647072
 O        -0.5876608082       -5.1200367879       -6.7300464515
 C        -2.6131107974       -4.5256442335       -8.0684456928
 C        -2.4005010049       -3.0928098275       -7.4308596579
 C        -2.5233038581       -3.0667375022       -5.8819014268
 O        -3.0899629142       -3.9596955473       -5.3108238488
 C        -1.9214609500       -1.8208624190       -5.1869542261
 C        -3.1392395205       -0.8435146288       -4.7649597971
 O        -4.1363429778       -1.2783259324       -4.2757331196
 C        -2.9444497104        0.7204751642       -4.9026182396
 C        -3.6059309591        1.4451148754       -3.6916314933
 C        -2.6924451971        1.6614081735       -2.5016383561
 O        -1.4660830926        1.5601878454       -2.4890103178
 C        -3.4559303489        2.1455831561       -1.1413557857
 C        -3.8061655864        0.7518982141       -0.5345649238
 O        -4.9639970584        0.3451343284       -0.5863171642
 C        -2.5646256779       -0.2364733760       -0.3763728585
 C        -3.1102141644       -1.5169009874        0.3380008441
 C        -3.9703960912       -2.4049502947       -0.6642828195
 O        -3.4901168952       -2.5525571245       -1.7855941881
 C        -5.3176237654       -3.1276780471       -0.2286971714
 C        -6.6070730404       -2.3107171463       -1.0081714361
 O        -6.6185363057       -2.3485020841       -2.2041159764
 C        -7.6344809455       -1.3982201796       -0.2376924590
 C        -9.0198999882       -1.8646942672       -0.5765108658
 C       -10.1582676694       -0.9042789743        0.0121833427
 O        -9.8721291504       -0.1969301590        0.9083083610
 C       -11.5728828587       -1.0539930854       -0.5690163796
 C       -11.6775950486       -0.6338506904       -2.0609062718
 O       -10.8941710945       -1.1444052835       -2.8044297995
 C       -12.8880070125        0.1979146274       -2.5470069761
 C       -11.8862378996       -2.5282683139       -0.6129213412
 C       -12.4075281538       -0.3701963606        0.5823455024
 C        -5.3995752205       -4.6086031271       -0.6918991420
 C        -5.5450825096       -2.9231366761        1.3717904474
 C        -2.4735455593        2.9827302007       -0.3113160950
 C        -4.7045164580        2.8453302966       -1.4022547049
 C        -1.1050714349       -2.2026909647       -3.9571100007
 C        -0.8334852099       -1.0457227929       -6.0225162120
 C        -0.4507032310       -7.7288038125       -7.4463583005
 C        -2.5710882264       -7.4430713438       -8.8140799532
 C        -5.8129899717       -8.0381162014       -1.7906449641
 C        -5.8803695005       -9.0167487662       -4.2030355286
 C        -8.0651367776       -1.4389145071       -6.6104693031
 C        -9.6958167427       -3.2570806100       -6.8540061405
 C        -5.7073945090       -5.0624608276      -12.7547837167
 C        -3.5373324871       -4.2386438523      -11.8757267382
 C        -1.1191618702        0.4409126285      -15.5461190285
 C        -2.9352412366        0.8579150475      -17.4014691344
 C        -0.2012887097       -0.8930127470      -21.9521042624
 C         1.9083788694       -2.3827428094      -21.9576902887
 C         5.8044797919        3.5551366627      -23.9053723890
 C         5.5903494894        4.2944507965      -21.5042796980
 C        -2.5323848480        5.0386531669      -21.5956224945
 C        -1.4644281253        6.0910269595      -23.6328367897
 H        -1.7103447614        8.4727749305      -19.6485721849
 H        -1.0798601577        7.0218081149      -19.2117134448
 H        -2.6974016049        7.0116040384      -19.9333699873
 H         1.3192938612        6.9825936871      -22.1698579442
 H         1.3980174554        5.9073491667      -23.3917778134
 H         2.6568111634        4.5055944706      -21.2969898727
 H         3.4209973790        6.0754609217      -21.5854272952
 H         5.4096621088        0.9783476331      -23.3163312545
 H         3.7520886328        1.2231410298      -24.1912522517
 H         4.0630903640       -0.6670990099      -21.8571343131
 H         3.7532216799       -0.9468075753      -23.5089173640
 H         1.9178309248       -2.3483258466      -18.9714144318
 H         0.2452961448       -2.3077546989      -19.4238080543
 H         1.0596700587       -0.6657813495      -16.9591237718
 H         0.2253872559       -2.1690175240      -17.2511943004
 H        -4.7768892960       -1.0044547937      -15.6210375482
 H        -3.3641197829       -0.4357704992      -14.8782570220
 H        -2.8252055808       -2.4188131313      -13.7262373949
 H        -3.5806589418       -3.5278796127      -14.9712984939
 H        -7.5170056424       -4.0986283331      -10.7933413517
 H        -7.6249546144       -2.5857426674      -11.6710916009
 H        -8.5234879794       -2.0714253628       -9.4591272374
 H        -6.9957082607       -1.5244855985       -9.1875004515
 H        -8.6365672728       -5.4642252953       -5.8057979938
 H        -8.2573277493       -5.0029756086       -4.2264858538
 H        -5.9060213425       -5.8489336638       -5.4704666586
 H        -7.2020675603       -7.1501151366       -5.5271348432
 H        -3.4037159759       -9.1678646043       -4.3187913465
 H        -2.7721581274       -8.3197926027       -2.9272575676
 H        -1.0524301179       -8.0499370382       -4.9959807096
 H        -1.7304939538       -6.4976247242       -4.5221441668
 H        -3.4979684574       -5.0008123694       -7.5508386786
 H        -2.7835028644       -4.5951127353       -9.1589289549
 H        -3.2351894173       -2.4111275292       -7.7469447201
 H        -1.4058628987       -2.6362177240       -7.8663056197
 H        -3.5392983382        1.0120547888       -5.8170335562
 H        -1.9068486521        0.9448556348       -5.0740475534
 H        -4.4954537845        0.8909459086       -3.4422727868
 H        -3.9060699413        2.5294103042       -4.0371655307
 H        -1.8816348231        0.3557405492        0.2667979841
 H        -2.2383446415       -0.6666740711       -1.2841574766
 H        -3.6562061208       -1.3815486749        1.3093956861
 H        -2.2024745910       -2.0841927424        0.5047564728
 H        -7.5433906295       -0.3954882230       -0.5961632223
 H        -7.4134816779       -1.3767861662        0.8044037688
 H        -9.2419048466       -2.7499675089       -0.1415787861
 H        -9.1218862850       -1.9095027218       -1.5895356954
 H       -12.6443550671        0.6806000135       -3.5327957174
 H       -13.1876578351        1.0741841835       -1.8646582057
 H       -13.7006301075       -0.4646757379       -2.6640677110
 H       -11.7212307285       -3.0925219354       -1.4880926066
 H       -13.0271534931       -2.5933074712       -0.6578865152
 H       -11.5983814326       -2.9986482238        0.2957178306
 H       -12.1714601027       -0.7305444649        1.5809043950
 H       -13.4020652205       -0.6835969672        0.4597242380
 H       -12.1864419271        0.7303419053        0.6492776525
 H        -6.4269077399       -4.8869130448       -0.7738090806
 H        -4.8330689663       -5.2300737579        0.0696387194
 H        -4.8169878710       -4.7087016223       -1.6518681923
 H        -6.3202393126       -3.6152151166        1.7418950889
 H        -5.7624421450       -1.9306630375        1.6251493132
 H        -4.6133659756       -3.2646407379        1.9383709096
 H        -1.6490672921        2.4483551817        0.1692837966
 H        -2.9861911458        3.1995545084        0.6121000405
 H        -2.0395566545        3.8594777372       -0.7534305113
 H        -5.0994866519        2.8127292782       -0.3924530907
 H        -5.3405436787        2.2726826121       -2.1500010960
 H        -4.5899953254        3.8703726622       -1.8488655287
 H        -0.4444156926       -3.1058513316       -4.2704565068
 H        -1.8661208064       -2.5548161861       -3.2285485192
 H        -0.3923657319       -1.4700931432       -3.5860008483
 H        -0.0501430733       -1.7226238167       -6.3529220904
 H        -0.5559356198       -0.1374873469       -5.4561043555
 H        -1.3244469880       -0.7556920183       -6.9338058006
 H         0.0014179041       -7.4409078234       -6.4968054924
 H         0.2202174836       -7.3398479182       -8.1746031549
 H        -0.5947797687       -8.8140465546       -7.2833482760
 H        -3.5931267274       -7.0617662458       -8.6994431812
 H        -2.5684542324       -8.5186233143       -9.0360591430
 H        -2.1280664182       -7.0638182654       -9.7492565417
 H        -5.5484152975       -9.0314106997       -1.5727281902
 H        -6.8296865502       -7.9753246811       -1.4864543282
 H        -5.2626236594       -7.3742979485       -1.1556186783
 H        -6.9360634937       -9.2228595420       -4.2540576344
 H        -5.3427129600       -9.8837166690       -3.7890161831
 H        -5.5192009367       -8.8676026103       -5.1472401187
 H        -8.4523739971       -0.8752818698       -7.4565877580
 H        -6.9423972338       -1.1603283348       -6.5481698917
 H        -8.4723049732       -1.2829697741       -5.6218182414
 H        -9.8604901064       -4.2791589389       -7.1153062363
 H       -10.1437499421       -2.6229385537       -7.6319766296
 H       -10.1647293589       -3.1846052823       -5.8794874920
 H        -5.8160535676       -5.7802524300      -11.8646313032
 H        -5.0141598786       -5.6249952190      -13.4509345764
 H        -6.6699477505       -4.8503138901      -13.2672602743
 H        -3.0090014573       -3.5328105921      -11.2280257207
 H        -2.6961126068       -4.3656276302      -12.6563496529
 H        -3.6665473101       -5.1218064876      -11.3320433656
 H        -0.6879319322       -0.2916599225      -14.7811872155
 H        -1.8060109117        1.1102305925      -15.1118461356
 H        -0.2849320289        1.0189951796      -15.8879318406
 H        -3.0229670806        0.4512687261      -18.3810283640
 H        -2.4237156898        1.8096501933      -17.4760033318
 H        -3.8106556411        0.8062412323      -16.7891503251
 H        -0.4622208781       -0.7500251922      -22.9958283343
 H        -0.5928728992       -0.0284511709      -21.5773289927
 H        -0.8312826041       -1.6557484750      -21.4827858765
 H         1.5355603757       -2.8371518028      -22.8846289234
 H         1.7150082858       -3.1782775438      -21.1982479804
 H         2.9782020803       -2.3588074787      -22.1328106960
 H         5.3855070899        3.1113899679      -24.7220734356
 H         6.5552170513        2.9492376737      -23.5842346659
 H         6.2932967376        4.4856668227      -24.0982474231
 H         5.8890479109        5.3306020643      -21.7190621503
 H         6.6008403075        3.8199173850      -21.3222379979
 H         4.8766160569        4.1931844456      -20.6990506353
 H        -3.4886938471        5.5608933594      -21.8191262244
 H        -2.6756119689        4.9103022067      -20.5361321224
 H        -2.4691716122        4.0330456104      -21.9700606551
 H        -0.8034500597        6.8462474340      -23.9497139535
 H        -2.4646218601        6.3561401825      -24.0522628604
 H        -1.1774995295        5.2228269775      -24.2453719574
 Na       -4.7423756376       -3.5722054897       -3.6125861343
 Na        1.4016403791        2.3115964616      -21.1924577046
