232

 C        -1.8506100339        7.7524499568      -20.0260170449
 C        -1.1509658756        7.5190745779      -21.3793798792
 O        -0.5398841892        8.3964080192      -21.9059399190
 C        -1.2632659315        5.9699435341      -22.0096043910
 C         0.0362902460        5.1994007689      -21.9000507554
 O         0.0820255397        4.0903658400      -21.3217944762
 C         1.3285365527        5.7040544565      -22.5516205923
 C         2.7037962601        5.1497993129      -22.0014298186
 C         3.3230131550        4.2766377365      -23.1228287685
 O         2.8877513543        4.1952356337      -24.2672484123
 C         4.7480369631        3.7055263465      -22.8265324404
 C         4.4634131285        2.2969578032      -22.2351060482
 O         4.1506326168        2.1899363572      -21.0624753421
 C         4.3897708007        1.0762234218      -23.2008729833
 C         3.7007131463       -0.1882358289      -22.6212460041
 C         2.1546013535        0.0463104888      -22.4983477149
 O         1.6420213198        1.0010671075      -22.9544873870
 C         1.2330337159       -1.0212571090      -21.7852102823
 C         1.2332773707       -0.6713301887      -20.2044392002
 O         1.4996892505        0.4496957696      -19.7527995383
 C         0.9556901586       -1.6544565914      -19.0705994820
 C         0.4715730237       -0.9483912721      -17.8121042387
 C        -0.9540408769       -0.4128230112      -18.0660881884
 O        -1.3998703764       -0.2930944673      -19.2190252233
 C        -1.8960280661       -0.1545874698      -16.7376097516
 C        -2.5198668370       -1.5841465945      -16.2488301736
 O        -2.1749863264       -2.6075990525      -16.7974995778
 C        -3.5842371899       -1.4910523480      -15.1022616965
 C        -3.9255547425       -2.8798495601      -14.4937607838
 C        -5.0345299773       -2.7613543913      -13.4041366865
 O        -6.0216735213       -2.1677934322      -13.7350924646
 C        -5.0896542802       -3.8474526919      -12.2368265287
 C        -5.6677490330       -3.2403886607      -10.9246486103
 O        -4.9913818166       -2.8431611587      -10.0084973075
 C        -7.1689875352       -3.1131200234      -10.7685701553
 C        -7.5554906068       -2.4851640154       -9.4966645932
 C        -7.8248858756       -3.5105642289       -8.3317077771
 O        -7.5437846382       -4.6741038355       -8.3846279955
 C        -8.4057910706       -2.9853825824       -7.0187582575
 C        -7.3648001599       -3.7117509127       -5.8986320197
 O        -6.2611315756       -3.2735264691       -5.7014310730
 C        -7.7983120205       -5.0171505410       -5.2868662091
 C        -6.6167991488       -6.0617089863       -5.0469468755
 C        -6.7185144658       -6.7419140817       -3.6622201367
 O        -7.6184844784       -6.5064386830       -2.9095717571
 C        -5.5741628012       -7.8507347008       -3.3935988493
 C        -4.1791703060       -7.1277030748       -3.5985074588
 O        -4.0156733551       -5.9492857931       -3.3842565911
 C        -2.9056348169       -8.0560412219       -3.8085425260
 C        -2.1346670657       -7.3485590108       -4.8383140302
 C        -2.6822500386       -7.3730596554       -6.2606012526
 O        -3.9055573260       -7.5496763062       -6.4729195386
 C        -1.7666516062       -6.9998102141       -7.4702131270
 C        -1.4574339234       -5.4822228797       -7.3806930483
 O        -0.5267085814       -5.0960769800       -6.7422726072
 C        -2.4804956239       -4.4082997161       -7.9731030051
 C        -2.2228909631       -3.0091793349       -7.4502695606
 C        -2.4194778272       -2.9153963756       -5.8929123000
 O        -3.0015301272       -3.7898073721       -5.2621986829
 C        -1.9060003877       -1.6275382382       -5.1394498373
 C        -3.0960769487       -0.6758834019       -4.7351491058
 O        -4.1442143718       -1.1475650337       -4.3332167712
 C        -2.9244527115        0.8559500269       -4.9136728571
 C        -3.6553070399        1.6625012317       -3.8369452548
 C        -2.7676301750        1.7698534263       -2.5580104376
 O        -1.5722521251        1.6963180235       -2.7119331578
 C        -3.4514082261        1.9929795783       -1.2298344846
 C        -3.7636214815        0.5086015860       -0.5235851197
 O        -4.9104214316        0.1778433229       -0.2367487976
 C        -2.5622064583       -0.3113874230        0.0117073183
 C        -3.0293948025       -1.7586518106        0.3689133885
 C        -3.9189011191       -2.3916667890       -0.6745046258
 O        -3.5327961755       -2.5929041759       -1.8154382346
 C        -5.2872497435       -2.9987007320       -0.1911625634
 C        -6.4722883360       -2.2621758274       -1.1152057167
 O        -6.4480787801       -2.4006137196       -2.3139314858
 C        -7.5058993580       -1.4641531380       -0.3054145704
 C        -8.9634160389       -1.9508358060       -0.5260198862
 C       -10.0413183285       -0.9906961523        0.0690964636
 O        -9.7039347312        0.0054079082        0.7023979835
 C       -11.5835101088       -1.0675043210       -0.4347632915
 C       -11.6499445484       -0.7462711953       -1.9650138116
 O       -10.8372979847       -1.2488361355       -2.7541625132
 C       -12.7351255820        0.1678181386       -2.4874237644
 C       -12.0287916895       -2.5417532223       -0.1984768060
 C       -12.5166956857       -0.1532866229        0.2757934288
 C        -5.2501614819       -4.4724014927       -0.7592754537
 C        -5.5719267955       -3.1179503074        1.2880955751
 C        -2.4975879281        2.5985511616       -0.1887274000
 C        -4.7474733824        2.9177363271       -1.2799791250
 C        -1.2998154694       -2.0519949302       -3.7527432765
 C        -0.8335177783       -0.8843704204       -6.0950727342
 C        -0.4026610177       -7.7519784409       -7.5976603795
 C        -2.4184450225       -7.2901606736       -8.8454385293
 C        -5.7804795510       -8.3431152802       -1.9607842628
 C        -5.9227841000       -9.0925835708       -4.2310186653
 C        -8.2048287988       -1.5109691769       -6.5772489768
 C        -9.8791656776       -3.4790509003       -6.7489683597
 C        -5.9169859521       -5.0546129058      -12.9223160919
 C        -3.6753562939       -4.2572891049      -11.9431998618
 C        -1.0972742549        0.5855929223      -15.6117889490
 C        -3.0140489828        0.7769350018      -17.1116398244
 C        -0.1801213727       -0.9021542086      -22.2702048259
 C         1.7725208641       -2.5183687149      -21.8399619055
 C         5.5456068586        3.5818867596      -24.2097572103
 C         5.5858621631        4.5236128731      -21.8160529482
 C        -2.3577637007        5.1080703164      -21.4339894819
 C        -1.5035368361        6.3214983454      -23.5571489558
 H        -2.0336427367        8.8186028481      -19.8608809709
 H        -1.2031393618        7.6135856148      -19.2161114968
 H        -2.6984269876        7.1311529013      -19.8342450467
 H         1.3690425608        6.7809209323      -22.4747970685
 H         1.3403074273        5.6345935426      -23.6869213448
 H         2.6793925422        4.6517095731      -20.9763048708
 H         3.2932404800        6.0513089592      -21.9196980682
 H         5.4783143233        0.7134693140      -23.3246217160
 H         3.9375099622        1.3199448240      -24.0932496880
 H         4.2141736489       -0.5065130639      -21.6748422820
 H         3.9204761609       -0.9795672384      -23.2879391194
 H         1.8619644304       -2.1571098664      -18.9748117485
 H         0.1597282128       -2.3990879988      -19.3640829181
 H         1.1126831791       -0.0495771305      -17.6765742232
 H         0.5606725265       -1.4646295314      -16.8824646993
 H        -4.3551888331       -0.9286917977      -15.5332860260
 H        -3.2327388791       -0.7925650212      -14.3418981470
 H        -2.9642982667       -3.2798370684      -14.1095522069
 H        -4.3814009924       -3.5363825692      -15.1967179850
 H        -7.6177154767       -4.1496223589      -10.7906745246
 H        -7.6990055288       -2.5287330832      -11.5984770461
 H        -8.5407588907       -1.9188325618       -9.4802279369
 H        -6.8120829238       -1.7334505520       -9.0871363090
 H        -8.5890157900       -5.5752524687       -5.8672322650
 H        -8.2766584483       -4.9198652253       -4.2662208227
 H        -5.7023127792       -5.5178833241       -5.1573864496
 H        -6.6868899878       -6.8854244719       -5.8333845269
 H        -3.1410149625       -9.0750329966       -4.0868218007
 H        -2.2971447730       -8.1298222432       -2.9097369026
 H        -1.1358274198       -7.6079151839       -4.7864591945
 H        -2.1482062968       -6.3471470484       -4.4337259388
 H        -3.4683854863       -4.7238524234       -7.6411705799
 H        -2.5257771545       -4.3959522430       -9.0678110246
 H        -2.9297353861       -2.4370859467       -8.0520579875
 H        -1.2215301901       -2.7202568845       -7.6948955375
 H        -3.1887076382        1.2012369820       -5.8698144358
 H        -1.8372122218        1.0455318328       -4.7691535589
 H        -4.6328364026        1.2484224115       -3.5947572677
 H        -3.7994921670        2.5950390259       -4.2601214246
 H        -2.1630623724        0.1124637641        0.8963710133
 H        -1.9740469559       -0.3049049708       -0.9464406387
 H        -3.6086253837       -1.6415420251        1.2814474816
 H        -2.1158536339       -2.3381707505        0.6663703853
 H        -7.4359312622       -0.3777184340       -0.5760136767
 H        -7.2179925487       -1.5693797345        0.7717080135
 H        -9.1965057291       -3.0110899988       -0.1096092823
 H        -9.2669250785       -1.8693561135       -1.6524124284
 H       -12.2718308328        0.9182738258       -3.0747970645
 H       -13.2707677175        0.6867596788       -1.7734514159
 H       -13.4781189071       -0.4219479083       -3.1069729652
 H       -11.3976227880       -3.2198749439       -0.8143891477
 H       -12.9375804199       -2.7322225786       -0.7004028267
 H       -12.0014965560       -2.9349899773        0.8661283336
 H       -12.6940375376       -0.3882473194        1.2979671289
 H       -13.5074167601       -0.3543943194       -0.1494251724
 H       -12.1742915447        0.8538741762        0.3035918130
 H        -6.3158884033       -4.7957007712       -0.8620862451
 H        -4.7613319151       -5.1108943512       -0.0592752157
 H        -4.5952553450       -4.5166104461       -1.6085636775
 H        -6.6060845621       -3.4858989252        1.4077360706
 H        -5.3779600938       -2.1556192479        1.9278290456
 H        -4.9224032142       -3.8790667390        1.6680621601
 H        -1.4408998441        2.3589806952       -0.1729204100
 H        -2.7005582187        2.3529795124        0.8358769879
 H        -2.5516717278        3.7000453403       -0.3660020937
 H        -5.0808436780        3.1288857985       -0.2611193882
 H        -5.5267187760        2.4042582286       -1.8217326546
 H        -4.4752186477        3.8274368152       -1.7894604370
 H        -0.4895758742       -2.6767074888       -3.8127634580
 H        -2.1357766993       -2.5233575936       -3.2379093666
 H        -0.9554832479       -1.1389937907       -3.2310960176
 H        -0.1142753469       -1.5916402810       -6.4214761364
 H        -0.2933416146       -0.1745791489       -5.5295096588
 H        -1.3203168041       -0.4809064385       -6.9546651013
 H         0.1541545035       -7.8541386708       -6.6633834151
 H         0.0782993393       -7.1022327468       -8.3361171959
 H        -0.5556352712       -8.7623537545       -7.8197760797
 H        -3.1787984943       -6.5724129037       -9.0888473028
 H        -2.8656061994       -8.2500349572       -8.9392305636
 H        -1.6417234972       -7.3213672319       -9.5744444158
 H        -5.3468433199       -9.2918192290       -1.6493017390
 H        -6.8397207446       -8.4235525361       -1.7690128330
 H        -5.4097957325       -7.6019796372       -1.2600401612
 H        -7.0202934083       -9.3069127676       -4.1665874253
 H        -5.2669584505       -9.9392610047       -3.9754377328
 H        -5.6794855017       -8.8851197700       -5.3430462480
 H        -8.5225955177       -0.8678796015       -7.3693422277
 H        -7.1329639512       -1.4337409793       -6.5877128466
 H        -8.6849318838       -1.3121029672       -5.6020211277
 H       -10.0667040087       -4.5007854032       -7.0388281494
 H       -10.5270665745       -2.8607333114       -7.3468163537
 H       -10.1408947010       -3.4243087201       -5.7191611344
 H        -5.8984567049       -5.9480984555      -12.3638157924
 H        -5.5107429438       -5.3107082261      -13.8560392439
 H        -6.9185312224       -4.6304687252      -13.0972933634
 H        -3.0487808047       -3.4095497154      -11.7446634602
 H        -3.1915641999       -4.6404684227      -12.7466514253
 H        -3.5303160287       -4.9566043804      -11.0325153715
 H        -0.2316132404        0.0001833678      -15.3319324372
 H        -1.7246530083        0.7071588595      -14.6837372960
 H        -0.7430983471        1.5947224814      -16.0251196124
 H        -3.6820663890        0.2715718331      -17.8331235550
 H        -2.5270463568        1.6316410720      -17.5975155005
 H        -3.4611212435        0.8948500142      -16.1098416960
 H        -0.2872493860       -1.1717822881      -23.3404567252
 H        -0.6381713052        0.1563248378      -22.3170500261
 H        -0.8806776761       -1.4144750657      -21.6424152591
 H         1.5044366395       -2.9991613089      -22.7790435805
 H         1.2352591865       -3.1043315210      -21.1517610192
 H         2.8388990519       -2.7343649744      -21.7195866548
 H         4.7850732057        3.1323934572      -24.9478900353
 H         6.4885900802        2.8729192251      -24.2858691820
 H         5.7531815101        4.6215405792      -24.4614263430
 H         5.9442360816        5.4571794313      -22.3507247969
 H         6.4573688154        3.9428587875      -21.5059127148
 H         4.9208893689        4.7870889518      -20.9853380878
 H        -3.2306926084        5.5978060514      -21.0777293531
 H        -1.9941669825        4.7323294196      -20.4696632764
 H        -2.4766723689        4.1921615413      -22.0045323033
 H        -0.8200246171        7.0736149551      -24.0523353495
 H        -2.4176401841        6.7711382026      -23.7908592852
 H        -1.5149164166        5.3783807147      -24.1111522834
 Na       -4.8321999589       -3.5059967291       -3.7871662176
 Na        1.5906044044        2.3524942636      -21.1329057497
