232

 C        -1.8508321371        7.9312950693      -20.0117370107
 C        -1.1932787436        7.5685692848      -21.2992811737
 O        -0.5566585289        8.3671653367      -21.9033931650
 C        -1.2660174530        6.0394589893      -21.9412991956
 C         0.1109482980        5.2796448046      -21.8689203246
 O         0.0605847596        4.1977414003      -21.2734853308
 C         1.3413536143        5.7111299398      -22.6395600825
 C         2.6726146572        5.1752110651      -22.1168715295
 C         3.3567228834        4.3309522401      -23.1631879893
 O         2.7520478576        3.9933536331      -24.1396730160
 C         4.7774770793        3.6921852316      -22.9463650463
 C         4.4187223330        2.2292040552      -22.2801635082
 O         4.2055679061        2.2386627388      -21.0847550872
 C         4.3985927936        0.9949082173      -23.1520793959
 C         3.6820259715       -0.2210862070      -22.5441756014
 C         2.1763015611       -0.0665093572      -22.4417419471
 O         1.6657136163        0.9327602600      -22.9398711715
 C         1.1674362969       -1.1298553102      -21.6648298049
 C         1.2416032707       -0.6503830609      -20.1838103186
 O         1.5420756700        0.4719877536      -19.9618838693
 C         0.9558561335       -1.6487028662      -19.0079277918
 C         0.3698128432       -0.9543262524      -17.8288230585
 C        -1.0190089199       -0.4069039018      -18.0717005618
 O        -1.4656356410       -0.1584736832      -19.1302764309
 C        -1.9124758825       -0.1956794522      -16.7440506702
 C        -2.5289965992       -1.5780692754      -16.2288324752
 O        -2.1858466899       -2.6531477402      -16.7102234599
 C        -3.5202811107       -1.5688821205      -15.0488086371
 C        -3.9839234504       -2.9223948629      -14.5551900699
 C        -5.1704219143       -2.8710088790      -13.4640063750
 O        -6.0014563267       -2.0064033861      -13.4710619650
 C        -5.0940007873       -3.8662636662      -12.2965271568
 C        -5.6981638329       -3.2845832325      -10.8981531872
 O        -4.9158174551       -2.9460894995      -10.0312191064
 C        -7.3232313489       -3.1971610879      -10.7753691488
 C        -7.6990107170       -2.4806021341       -9.4562063269
 C        -7.8410984254       -3.5085467853       -8.2790743853
 O        -7.5399526061       -4.6782235289       -8.4780543499
 C        -8.3743762098       -3.0361045946       -6.8033723607
 C        -7.4287056936       -3.8184911381       -5.9124881035
 O        -6.2538401345       -3.2797748423       -5.8805375247
 C        -7.7716334899       -5.1354329128       -5.3648206807
 C        -6.5717659275       -5.9495279394       -4.9605696198
 C        -6.6636480798       -6.7303885529       -3.7044344040
 O        -7.5862029296       -6.6205916508       -2.8898259839
 C        -5.6101942143       -7.8160453567       -3.4290006074
 C        -4.2127376711       -7.2032688850       -3.4945921534
 O        -4.1058956245       -6.0105084626       -3.3586959481
 C        -2.9113023060       -7.9622336802       -3.8314440360
 C        -1.9594532072       -7.2673981675       -4.8666308140
 C        -2.6344271439       -7.3534912289       -6.3066930851
 O        -3.8031025402       -7.6464769125       -6.3971081589
 C        -1.7311920037       -6.9213445834       -7.6107794592
 C        -1.4559968736       -5.4118249437       -7.3159907634
 O        -0.4243630146       -5.1201245484       -6.7124441235
 C        -2.5084855351       -4.4313017640       -7.8721068168
 C        -2.1658342988       -2.9821444739       -7.3623409999
 C        -2.3540496309       -2.7869176417       -5.8876008132
 O        -2.9657400465       -3.6427094192       -5.2843108826
 C        -1.8783285311       -1.5205427581       -5.2065164863
 C        -3.1397181256       -0.6571054194       -4.8503683354
 O        -4.1186822936       -1.0988381573       -4.3519176487
 C        -2.9116188880        0.8808054906       -4.9410930348
 C        -3.6966093817        1.6911842110       -3.8715121254
 C        -2.8373270392        1.7063117134       -2.5673673894
 O        -1.6282628733        1.7514572924       -2.7046529055
 C        -3.4474702987        1.8988179735       -1.1118365797
 C        -3.7961999381        0.5197408265       -0.4738488596
 O        -4.9311131164        0.1163516624       -0.2005150246
 C        -2.5511936175       -0.3083380933       -0.0081924679
 C        -3.0103852992       -1.7469450426        0.4079784837
 C        -3.9524421706       -2.4758931493       -0.6279758013
 O        -3.5457518768       -2.4689358638       -1.8071585897
 C        -5.3430677114       -3.1527619123       -0.1976423745
 C        -6.4570847946       -2.3095754207       -1.0415520579
 O        -6.4491105298       -2.3917098502       -2.2455284937
 C        -7.4957522610       -1.3863814967       -0.4469356985
 C        -8.9409119683       -1.9869766475       -0.6296427604
 C        -9.9833171247       -0.8577421827       -0.1270401638
 O        -9.5937083888       -0.0000096086        0.5720799479
 C       -11.5404851956       -1.0888828849       -0.4190512815
 C       -11.5583739392       -0.8083854324       -1.9817350643
 O       -10.7710863879       -1.3384222685       -2.7185194691
 C       -12.6100556652        0.1619491717       -2.5710617886
 C       -12.0813009146       -2.5323320449       -0.0062311577
 C       -12.5370429175       -0.1759123111        0.3790455726
 C        -5.3938007943       -4.6668100052       -0.7542350090
 C        -5.5348949388       -3.1777401661        1.2961509469
 C        -2.4441269334        2.5680757413       -0.1937969868
 C        -4.7033896450        2.7192788049       -1.1229084569
 C        -1.2809028361       -1.9802903630       -3.9115870010
 C        -0.7926443425       -0.7739516919       -5.9609604562
 C        -0.4253912400       -7.7678840855       -7.4655122776
 C        -2.5278646582       -7.2314940203       -8.9131319393
 C        -5.7263490289       -8.3490610384       -2.0111520348
 C        -5.8026715690       -9.0467913495       -4.3822957197
 C        -8.3809873563       -1.4298446008       -6.7918187555
 C        -9.7845690977       -3.5012289507       -6.6816011141
 C        -6.0025340074       -5.0248456672      -12.7946816601
 C        -3.6629043554       -4.4272145663      -11.9814142864
 C        -0.9823020826        0.5040506196      -15.7430404378
 C        -3.1676210318        0.7878739908      -17.0589167064
 C        -0.1970365849       -0.8989097117      -22.3902974372
 C         1.7724272542       -2.4831714979      -21.9501245984
 C         5.4388838844        3.6004128202      -24.3257485580
 C         5.5629557274        4.6040580841      -21.9716165604
 C        -2.3738952225        5.1346301221      -21.4161374290
 C        -1.5293098546        6.3313120324      -23.4659500741
 H        -1.9707864860        9.0093310349      -19.8894103984
 H        -1.2749218470        7.7216380680      -19.1186823806
 H        -2.7683376892        7.3442921458      -19.8806440864
 H         1.3790894144        6.7239223562      -22.9359245555
 H         1.1452738296        5.2252507613      -23.7164121953
 H         2.4415693743        4.4298685613      -21.2995797142
 H         3.2143906590        5.9764120756      -21.6231537994
 H         5.3865012987        0.5771953433      -23.4674267540
 H         3.7490222281        1.3332415414      -24.0385339494
 H         4.1525441864       -0.4085468851      -21.5670036872
 H         3.9738189923       -1.1425057078      -23.1724125104
 H         1.9527739799       -2.0847349782      -18.7869885904
 H         0.2884022239       -2.4093442818      -19.3767365202
 H         1.1185371031       -0.1651357948      -17.6451374309
 H         0.3530104762       -1.4984890940      -16.8566487926
 H        -4.2845819354       -0.9004992475      -15.3885515784
 H        -3.0393052447       -1.0081500248      -14.2466678249
 H        -3.1114730607       -3.4283536630      -14.1528825011
 H        -4.3830924392       -3.5028548698      -15.3373295114
 H        -7.8435929304       -4.1243623952      -10.9104134582
 H        -7.6951915273       -2.5042591191      -11.5121634089
 H        -8.6319576413       -1.9304645250       -9.3694971597
 H        -6.8632579660       -1.7178235990       -9.0707283705
 H        -8.5216621127       -5.8188165360       -5.8768054499
 H        -8.2961125165       -4.8763680516       -4.3783752739
 H        -5.6839952946       -5.2878013431       -4.8826682886
 H        -6.4023249322       -6.6650671057       -5.7775065378
 H        -3.0817912734       -8.9709249142       -4.1779359033
 H        -2.2539891652       -8.0971090362       -2.9464604518
 H        -1.0751644383       -7.9400998284       -4.8175947724
 H        -1.6913306215       -6.3477467680       -4.4697592409
 H        -3.4829902005       -4.7620786310       -7.4811691252
 H        -2.5802028703       -4.5533084446       -8.9878475970
 H        -2.8009148722       -2.3873002321       -7.8841564879
 H        -1.1278207033       -2.6925457486       -7.6144342233
 H        -3.2138090802        1.2082863615       -5.9373676395
 H        -1.8200760565        1.1550717079       -4.8518117146
 H        -4.6403514887        1.2544884559       -3.6485287494
 H        -3.8921230381        2.7459156344       -4.3170672567
 H        -2.1661238095        0.0765078040        0.9471489262
 H        -1.9148348002       -0.2357181219       -0.9051270212
 H        -3.3783795483       -1.6100460177        1.4589556026
 H        -2.1104322046       -2.3304241566        0.5528515221
 H        -7.3701199574       -0.4580414775       -1.0525761365
 H        -7.2964705494       -1.1541651467        0.6356296873
 H        -9.1202350574       -2.9060860869        0.0189535750
 H        -9.2201544850       -2.1838409474       -1.7482575614
 H       -12.1124447134        0.9199021558       -3.1437373091
 H       -13.1902131656        0.6852550974       -1.8018602730
 H       -13.3109968284       -0.3734543972       -3.1510896320
 H       -11.4817142552       -3.3409174391       -0.2531321986
 H       -13.0532599467       -2.7035247819       -0.5561779191
 H       -12.1605500635       -2.6271820562        1.0883197505
 H       -12.3391813977       -0.2166082868        1.4369807685
 H       -13.5602173816       -0.4568950012        0.2766871538
 H       -12.2540405381        0.9186307002        0.2046614377
 H        -6.3508817404       -5.0416349928       -0.5563958384
 H        -4.7079230675       -5.2063099823       -0.1338545966
 H        -4.9242660721       -4.7964688526       -1.7256366022
 H        -6.4810360886       -3.6613129124        1.3803352175
 H        -5.6741364447       -2.1464502271        1.6354623117
 H        -4.7475897624       -3.6160223489        1.8987950461
 H        -1.3958725634        2.2598223661       -0.4377094471
 H        -2.3873603419        2.3260905591        0.8121277595
 H        -2.4732315723        3.6802648231       -0.3446250891
 H        -5.0303214335        3.1318343920       -0.2047517802
 H        -5.5057934537        2.1338128055       -1.6210361740
 H        -4.3762543084        3.5275944961       -1.7514657745
 H        -0.2616103912       -2.2933621604       -4.0087593797
 H        -1.8997681297       -2.7751250315       -3.5430091263
 H        -1.2980370541       -1.1609439350       -3.2672581057
 H         0.0628773313       -1.4365978764       -6.1069178426
 H        -0.3424489125       -0.0435158703       -5.2332712565
 H        -1.1669839868       -0.3562678510       -6.8865537423
 H        -0.0314110130       -7.6768717941       -6.4672465269
 H         0.2285589008       -7.4248082421       -8.2421607088
 H        -0.6546736427       -8.8299938862       -7.4364773711
 H        -3.4485409649       -6.6550964410       -8.9933586888
 H        -2.8614600582       -8.2525858146       -8.8486038435
 H        -1.9074678721       -7.1906458643       -9.7928183110
 H        -4.9272062020       -9.0581775063       -1.7092661326
 H        -6.6802428865       -8.8430610977       -1.7566388440
 H        -5.5792067944       -7.4780771424       -1.2894007820
 H        -6.8323671241       -9.4545409469       -4.2418182796
 H        -4.9892542995       -9.8103229794       -4.2393285310
 H        -5.7192804157       -8.7746051723       -5.3861904170
 H        -9.0536838495       -1.1611668552       -7.5765254246
 H        -7.3445712377       -0.9632230011       -7.0556649619
 H        -8.8263183855       -1.1108911363       -5.8647081719
 H        -9.9097176855       -4.5229261648       -7.0063142344
 H       -10.4892393372       -2.8535059302       -7.2957691861
 H       -10.1274003722       -3.4883470242       -5.6362204449
 H        -5.9255447072       -5.7820709408      -12.0682694800
 H        -5.7150057646       -5.4338838124      -13.6933508338
 H        -7.0000810253       -4.5851423529      -12.8581876239
 H        -2.8655387909       -3.7796973130      -12.2026190046
 H        -3.3908012419       -5.2785701144      -12.6634854185
 H        -3.4619663735       -4.7444534143      -10.9489036834
 H         0.0721795921        0.0070021580      -15.6287992079
 H        -1.4187964189        0.3089633755      -14.8078693331
 H        -0.9254657091        1.5716378494      -15.9328079112
 H        -3.7872061668        0.1215671700      -17.6119430566
 H        -2.8388677023        1.5532858437      -17.8001515816
 H        -3.5871061942        0.9959549982      -16.0686557723
 H        -0.2101279948       -1.3954894584      -23.4152895864
 H        -0.5021815922        0.0818178655      -22.6369058178
 H        -1.0188228158       -1.2490559147      -21.7923066365
 H         1.9601332713       -2.4586731360      -23.0351789328
 H         1.1296620118       -3.3190067934      -21.8428131086
 H         2.6861935745       -2.7688208842      -21.4582372859
 H         4.6601654980        3.0927418821      -24.9673753710
 H         6.3648641921        2.9821222512      -24.4392776410
 H         5.5305492224        4.6886595523      -24.6325221270
 H         5.5542061833        5.6698726236      -22.4246746655
 H         6.6042767824        4.2446915749      -21.7874061718
 H         4.9475588687        4.6210880473      -21.0734504150
 H        -3.3408664721        5.6506061940      -21.2011195484
 H        -2.1799712977        4.7082985940      -20.4623935363
 H        -2.4244773481        4.3078223853      -22.0784861786
 H        -0.8343223587        6.9959111651      -23.9273126227
 H        -2.3889590466        6.9703815048      -23.6605237252
 H        -1.7015635194        5.3828000480      -24.0927987897
 Na       -4.8490212855       -3.3598858808       -3.8071846657
 Na        1.7046567640        2.4951237528      -21.0743661944
