232

 C        -1.8630688885        7.8925531326      -20.0892131525
 C        -1.0628426513        7.5840136555      -21.3278796687
 O        -0.3064716517        8.3777872673      -21.8360534418
 C        -1.3400378689        6.0647039079      -21.9839979928
 C         0.0282307555        5.2859322657      -21.7585299825
 O         0.2160754891        4.3825768293      -20.9680199458
 C         1.1962188954        5.8639081632      -22.6983312302
 C         2.6883678630        5.3864115315      -22.4741273024
 C         3.1250569535        4.1767419362      -23.3408903090
 O         2.3833608222        3.5899641218      -24.0935044771
 C         4.7005901568        3.5589388247      -23.0792518436
 C         4.4390460482        2.3307236427      -22.3844362054
 O         4.0929129271        2.3291554233      -21.1800373540
 C         4.4787791062        1.0592697245      -23.2004778901
 C         3.7574321075       -0.1082879546      -22.3733640516
 C         2.1835879901        0.0154134601      -22.5619601548
 O         1.7049574433        1.1094956555      -22.8262649799
 C         1.3070271218       -1.1404966676      -21.7701774310
 C         1.2400310183       -0.5917718247      -20.3086113050
 O         1.4146631922        0.6044299584      -19.9773844698
 C         0.8340681409       -1.6944727805      -19.3291256335
 C         0.2160186536       -1.2020843024      -18.0210941014
 C        -1.1643113994       -0.4208152073      -18.0348649501
 O        -1.6240720366        0.0314806745      -19.1081135655
 C        -1.9826546867       -0.2620431768      -16.6922648068
 C        -2.5253858357       -1.5979358620      -16.1401695106
 O        -2.1213520765       -2.6551620609      -16.4929097136
 C        -3.4971869434       -1.5616115032      -14.9191604502
 C        -4.2985399136       -2.9130124980      -14.6202963934
 C        -5.1090093335       -2.8707172580      -13.3352341735
 O        -5.7142794641       -1.8310224521      -13.1205545213
 C        -5.2600214408       -4.0634605926      -12.2588625675
 C        -5.7164325131       -3.3467525630      -10.8502470834
 O        -4.8859639610       -3.0563529585      -10.0225857095
 C        -7.2452740751       -3.1911051315      -10.9435514540
 C        -7.7496367770       -2.5308213530       -9.6372339934
 C        -7.9359249957       -3.5835151504       -8.4585386975
 O        -7.7232229714       -4.7382676717       -8.5974424990
 C        -8.4322179125       -3.1032954769       -6.8928733385
 C        -7.2789977937       -3.7187276259       -6.0647124963
 O        -6.3155373660       -3.1185272405       -5.7352712154
 C        -7.6805351830       -5.1197684916       -5.3880001315
 C        -6.3997059753       -5.8919567549       -4.9341324076
 C        -6.6656624664       -6.7751914843       -3.6443652818
 O        -7.6229568120       -6.7396618169       -2.9241661250
 C        -5.5453375970       -7.8099079936       -3.5193658817
 C        -4.1041188518       -7.1032831337       -3.5108195975
 O        -4.0631002492       -5.8841870966       -3.3714557731
 C        -2.8680029748       -7.8877474120       -3.6902857407
 C        -1.9578058388       -7.2671832303       -4.8658957566
 C        -2.5898944953       -7.4140383847       -6.1571691554
 O        -3.7460066843       -7.7480330045       -6.4352126674
 C        -1.6619841144       -6.9490828761       -7.4770364640
 C        -1.3571833774       -5.3920588719       -7.3249648532
 O        -0.3680464207       -5.0369143563       -6.7498283984
 C        -2.4896959229       -4.2976053383       -7.8149722140
 C        -1.9908248980       -2.9159953330       -7.3976225555
 C        -2.2244211241       -2.7005813576       -5.9200715166
 O        -3.0430079474       -3.3921864710       -5.3478757356
 C        -1.7450810844       -1.3598285708       -5.1341501665
 C        -3.0202285782       -0.4138409179       -4.7966654180
 O        -4.0776735064       -1.0087089742       -4.5682931271
 C        -3.1653043203        1.1385030530       -4.9071414527
 C        -3.8386022038        1.6049275158       -3.5922996301
 C        -2.8518903473        1.7367629491       -2.4291037439
 O        -1.6780233098        1.5980518028       -2.6556444158
 C        -3.3974027238        1.7888138155       -1.0177467387
 C        -3.6902633544        0.3655450338       -0.4185201963
 O        -4.8528608863        0.0314456469       -0.3305034367
 C        -2.5669724463       -0.6231937705       -0.1564063370
 C        -3.2060031997       -1.9374055218        0.4190678368
 C        -4.0453113719       -2.5508909296       -0.6098029747
 O        -3.7251825496       -2.4969473607       -1.7587754519
 C        -5.4854036010       -3.1633933451       -0.1827875661
 C        -6.4394828995       -2.4042400487       -1.1519424765
 O        -6.4506236329       -2.6156735329       -2.3668470560
 C        -7.4712671145       -1.4650985877       -0.4361812567
 C        -8.8390015028       -1.9976096722       -0.5285071344
 C        -9.8708547706       -0.8908778878       -0.1337245127
 O        -9.5375160170        0.2245797271        0.3463017409
 C       -11.3288306564       -1.0937252040       -0.3691006940
 C       -11.5006293357       -0.8894638317       -1.9786617075
 O       -10.8970865691       -1.7081423844       -2.6696953078
 C       -12.4304635658        0.1139668534       -2.6332907188
 C       -11.8490398424       -2.5664398887       -0.0942471940
 C       -12.0483829564        0.0175420405        0.4378026286
 C        -5.4335423356       -4.6567607058       -0.6237235719
 C        -5.7303407866       -3.1113992393        1.3563159560
 C        -2.4226884435        2.6230035937       -0.2479774439
 C        -4.8265733161        2.6088573108       -1.0172554834
 C        -1.1502015788       -1.8254077225       -3.7781661848
 C        -0.7857178147       -0.6023771875       -5.9812430718
 C        -0.3445899537       -7.7751608165       -7.6103403792
 C        -2.5534642291       -7.1757648642       -8.6913282545
 C        -5.5662797302       -8.4586222451       -2.2049709261
 C        -5.6051934835       -8.9815894234       -4.5138986222
 C        -8.4608735878       -1.5547443451       -6.8318068879
 C        -9.8195558256       -3.6643763676       -6.7181442728
 C        -6.2339975255       -5.2036816422      -12.6724824061
 C        -3.8782647300       -4.6600495379      -12.0517101102
 C        -1.2096028318        0.4636221535      -15.5346332234
 C        -3.1894415096        0.6243334691      -17.0120960037
 C        -0.2124551134       -1.0406947267      -22.2571798256
 C         1.7754269700       -2.5949205932      -21.9629341900
 C         5.3163587298        3.4894025268      -24.4514834408
 C         5.5811681480        4.4784509780      -22.1968376259
 C        -2.5210687602        5.3744127944      -21.1612373801
 C        -1.6444247858        6.3310870060      -23.4294090774
 H        -1.6622027848        8.9313175667      -19.7655124040
 H        -1.4363179661        7.3591665874      -19.2112412839
 H        -2.9181323009        7.6264366436      -20.0473620158
 H         1.1794871180        7.0061813245      -22.5484108079
 H         0.9260445701        5.8549025084      -23.6828292600
 H         2.9157957249        5.2521731632      -21.4305742025
 H         3.3553593898        6.2307221093      -22.7554317720
 H         5.5186460668        0.7170894847      -23.2328997722
 H         4.0643193936        1.0685526603      -24.1584147778
 H         3.9596973576        0.2266063535      -21.3213175842
 H         4.2221323297       -1.0458479186      -22.4777572644
 H         1.7574561923       -2.2675655622      -19.1237222072
 H         0.0575315329       -2.2895292117      -19.9002559737
 H         1.0430565696       -0.6508945874      -17.5389393104
 H         0.0837423800       -2.0050776329      -17.3008140672
 H        -4.1589286493       -0.6493584443      -14.9352730818
 H        -2.7346941900       -1.4037526466      -14.0874323872
 H        -3.6158644108       -3.7701564434      -14.4641063272
 H        -5.0449445011       -3.1089417002      -15.4548372840
 H        -7.7454836813       -4.1402607557      -11.1338406996
 H        -7.5938496992       -2.4243979073      -11.6341519281
 H        -8.6417356615       -1.9510941689       -9.6301419480
 H        -6.9942295133       -1.9849006493       -9.2423054137
 H        -8.2463828763       -5.7854279678       -5.9897554313
 H        -8.2974272622       -5.0126805890       -4.5396412759
 H        -5.6311286903       -5.1980713971       -4.6139017531
 H        -5.9733667541       -6.4281682327       -5.8198171390
 H        -3.1005977995       -8.9315838745       -3.9995325154
 H        -2.2735799444       -7.9870047443       -2.7896353727
 H        -1.0161197485       -7.8523042009       -4.8310297902
 H        -1.7470350409       -6.1120388798       -4.7007672395
 H        -3.5166627549       -4.6408221734       -7.5087488494
 H        -2.4416286416       -4.4136028453       -8.8940391313
 H        -2.6679943631       -2.1385160284       -7.9936711852
 H        -0.9375777919       -2.8050209285       -7.7002882696
 H        -3.8265700899        1.2736300180       -5.7990446567
 H        -2.2533147787        1.7132670392       -5.0575149766
 H        -4.7358014062        0.9569792392       -3.2541560963
 H        -4.2372142027        2.5727476622       -3.7229569598
 H        -1.9108412899       -0.1126179003        0.5677107119
 H        -2.1215988255       -0.7957102302       -1.1637044708
 H        -3.6917502942       -1.7112391489        1.3365674135
 H        -2.4317815255       -2.6517486603        0.8052818691
 H        -7.3600097381       -0.5427267809       -0.9647091747
 H        -7.1715824642       -1.2773137471        0.5641618178
 H        -8.9829178363       -2.8222106683        0.0669791658
 H        -9.0382153288       -2.2278363308       -1.4982348023
 H       -11.9205097596        0.8429841738       -3.2867870836
 H       -13.0665928062        0.6020381451       -1.9293843269
 H       -13.1605411410       -0.5561331674       -3.2275172657
 H       -11.1308967716       -3.2275825072       -0.6685381630
 H       -12.8562393392       -2.8028413976       -0.2327302271
 H       -11.4831431943       -2.9340122691        0.8750522286
 H       -11.6483742129        0.0629128214        1.4696615791
 H       -13.1564106281       -0.1966904602        0.5423271566
 H       -11.8509344357        0.9837722066        0.0801915101
 H        -6.2376961045       -5.0965588758        0.0186437442
 H        -4.5263346861       -5.2377924872       -0.4798541370
 H        -5.5676309939       -4.6719846655       -1.6822009009
 H        -6.6944853596       -3.5340992657        1.6041206095
 H        -5.6857198427       -2.1051031674        1.8567032068
 H        -4.8820418968       -3.5598565983        1.7977016231
 H        -1.5314572541        2.1187476027        0.0052692613
 H        -2.6780149102        2.9663588402        0.7929025253
 H        -2.1991577127        3.5084499369       -0.7926813227
 H        -5.1758408910        2.7569010921        0.0567210739
 H        -5.5515886377        1.9382595685       -1.4534459196
 H        -4.7303546185        3.6574861127       -1.3999374304
 H        -0.1240733516       -2.0983709516       -4.0218781993
 H        -1.6317856832       -2.6998249731       -3.2961612716
 H        -1.1077718510       -0.8916493276       -3.1051752633
 H         0.0717700055       -1.2363938813       -6.2902682285
 H        -0.3142233267        0.1323633432       -5.3512672003
 H        -1.3952297483       -0.1677586782       -6.8294519800
 H         0.5753123708       -7.3671930702       -7.1686207678
 H        -0.3278728917       -8.0787803216       -8.6642022445
 H        -0.5294959852       -8.6519000136       -7.0094894464
 H        -3.6210785508       -7.0037698131       -8.4769828252
 H        -2.5321739432       -8.2563120173       -8.9705074965
 H        -2.1939691842       -6.5885894653       -9.5766618329
 H        -4.5658622072       -8.7310118055       -1.8463577139
 H        -6.1516707305       -9.3722902138       -2.1241067803
 H        -5.9106496005       -7.7820773446       -1.4638210906
 H        -6.4821581747       -9.5242602354       -4.3490233521
 H        -4.8426631652       -9.6513479406       -4.3520649727
 H        -5.5604546181       -8.6993568199       -5.5905204287
 H        -9.2942348388       -1.0737244722       -7.4443473803
 H        -7.5042133883       -1.2047307308       -7.0938872890
 H        -8.7839619024       -1.4172790327       -5.7705949359
 H        -9.8524226678       -4.7916256366       -6.7926471323
 H       -10.5644007418       -3.2387355671       -7.3638875019
 H       -10.1523389231       -3.4169369583       -5.6814279941
 H        -6.4528846832       -5.8722153311      -11.7975166559
 H        -5.6175450992       -5.8426915083      -13.3729308592
 H        -7.1065381265       -4.7418843267      -13.1891321499
 H        -2.9221078322       -4.0825093366      -12.1619252120
 H        -3.7137798014       -5.5306651459      -12.5767355529
 H        -3.7945341186       -4.9494796047      -10.9716567540
 H        -0.7216607829       -0.3539976621      -15.1369922326
 H        -1.9033361214        0.8395605794      -14.7252593371
 H        -0.5705961291        1.2396392391      -15.9377450666
 H        -3.8914219806       -0.0042386684      -17.5572306743
 H        -2.8654734282        1.3538015790      -17.6811273153
 H        -3.5415967302        0.9104395696      -16.0516892559
 H        -0.2448192152       -1.3872255142      -23.2380465478
 H        -0.6792323823       -0.0266841411      -22.3133453234
 H        -0.9085497932       -1.5981928871      -21.6670260046
 H         2.5013836106       -2.7996440968      -22.7419444709
 H         0.9691001800       -3.3338184900      -22.1237402997
 H         2.1640799260       -2.9372102752      -20.9856248694
 H         4.8227340805        2.8879347896      -25.1254570760
 H         6.2090627505        2.9560687573      -24.2573056470
 H         5.4543852002        4.4102710158      -24.8125293858
 H         5.2542878922        5.5143318941      -22.3159737758
 H         6.5427847919        4.2605285686      -22.6766355203
 H         5.7107698129        4.1927880860      -21.1235823767
 H        -3.4526645042        5.7943710505      -21.4618882294
 H        -2.4852708828        5.5108949122      -20.0505955337
 H        -2.6153035256        4.2843692993      -21.3671196680
 H        -1.0520026329        7.1804752858      -23.8472616203
 H        -2.5644962053        6.8569384198      -23.5672941659
 H        -1.6894720402        5.4762032994      -24.0224262292
 Na       -4.6990846840       -3.0715993837       -3.7806191210
 Na        1.8472426748        2.6763558494      -21.0756959131
