232

 C        -1.8047518610        7.9728281379      -20.0815734246
 C        -1.0239844545        7.5636698341      -21.2698148704
 O        -0.1791280056        8.2222378266      -21.7834996903
 C        -1.2768189688        6.1672030390      -21.9286929375
 C         0.0639488763        5.4043958881      -21.7577325090
 O         0.2172579030        4.5161620745      -20.8905332029
 C         1.1853514192        5.8936144255      -22.7404351085
 C         2.6731510345        5.4951206836      -22.6805036624
 C         3.0553559592        4.2141163852      -23.4014860833
 O         2.3082300198        3.4749796860      -23.9707560706
 C         4.5960956396        3.6996945127      -23.2544828175
 C         4.3439480109        2.3122455292      -22.4098394757
 O         4.0608802607        2.3272589198      -21.2212353590
 C         4.5130330949        0.9352574371      -23.1075935590
 C         3.7210413977       -0.1539249311      -22.3670097522
 C         2.2022156612        0.1044669649      -22.4133418762
 O         1.6779693732        1.0485886893      -22.8218295691
 C         1.3252262869       -1.0201362585      -21.8017639649
 C         1.1130506783       -0.6039339176      -20.3217763430
 O         1.2983385344        0.5313612744      -19.9640213974
 C         0.6116493796       -1.6796972399      -19.3355449732
 C         0.0528678640       -1.3053393918      -17.9635896854
 C        -1.1610321508       -0.4560766898      -18.0265734034
 O        -1.6201720068        0.0052581565      -19.0469285936
 C        -2.0568502325       -0.2467045490      -16.6465732330
 C        -2.5722219999       -1.7607980347      -15.9694082740
 O        -2.0555156291       -2.7788420260      -16.4260920335
 C        -3.4909328499       -1.7014492719      -14.7764097953
 C        -4.3273102835       -2.9957794792      -14.6899759436
 C        -5.1590179196       -2.8427026902      -13.2507781579
 O        -5.5859620837       -1.7921859620      -12.8914284212
 C        -5.1745602544       -4.1319061237      -12.3030092548
 C        -5.7826600274       -3.5029035275      -10.9665807339
 O        -5.0550279801       -3.1079869050      -10.0933492892
 C        -7.2215552083       -3.1217260438      -10.8298084548
 C        -7.7131215301       -2.4923411897       -9.5502121612
 C        -7.9823730440       -3.6125647574       -8.4676319553
 O        -7.8809549985       -4.8122585864       -8.7610514914
 C        -8.4097157912       -3.1650730667       -7.0637052806
 C        -7.3658464951       -3.7310731968       -5.9735844010
 O        -6.4644009269       -2.9600482509       -5.6353653708
 C        -7.6334169022       -5.0641996533       -5.4132151817
 C        -6.3950802799       -5.8321002173       -4.9112840261
 C        -6.5982931711       -6.7567218690       -3.7778998100
 O        -7.5793436291       -6.7657461024       -3.0373580311
 C        -5.4426879412       -7.8492867017       -3.4905076670
 C        -4.0585547032       -7.0139877351       -3.5551231042
 O        -3.9558984354       -5.8088885413       -3.3862921289
 C        -2.7706070872       -7.8755257675       -3.6051033059
 C        -1.9190237812       -7.2688678680       -4.7118595946
 C        -2.5237972015       -7.3710453139       -6.2101027148
 O        -3.6651076242       -7.7453541915       -6.3472847855
 C        -1.7378002795       -6.9432083631       -7.5271573933
 C        -1.3742079083       -5.3930201982       -7.2529173931
 O        -0.3357357716       -5.0047891316       -6.7813480826
 C        -2.2635685337       -4.2404042515       -7.8080100323
 C        -1.8892420064       -2.8391335021       -7.3347750679
 C        -2.3427204180       -2.5119408944       -5.8794178228
 O        -3.0175186479       -3.3608961090       -5.3308090577
 C        -1.7257712101       -1.2063803783       -5.1988898054
 C        -3.1449753714       -0.4358482719       -4.8794018037
 O        -4.1528797355       -0.9813721725       -4.5869987351
 C        -3.1711589480        1.1064655251       -4.8582254073
 C        -3.9066389569        1.5630886660       -3.5996972154
 C        -2.8615031386        1.5815193313       -2.4162062205
 O        -1.6881837496        1.4394463468       -2.6443598373
 C        -3.3822830829        1.7897957453       -0.9036479815
 C        -3.6593298748        0.3284606447       -0.5202296002
 O        -4.8121628736       -0.1289287383       -0.3591876439
 C        -2.4806013006       -0.5868310265       -0.1852184047
 C        -3.1610400970       -1.8623215913        0.4230040029
 C        -4.1411152550       -2.5082758861       -0.5748944152
 O        -3.7245863576       -2.6592648979       -1.7239022387
 C        -5.4914953052       -3.2489524357       -0.2182310937
 C        -6.5492426510       -2.4486214490       -1.0672968084
 O        -6.6209862736       -2.6448998360       -2.2666086213
 C        -7.4157737797       -1.4113812852       -0.4973745760
 C        -8.8325388732       -1.9685981988       -0.4351813953
 C        -9.7632597828       -0.7631562951       -0.1852969130
 O        -9.2320702026        0.2321076842        0.2225679900
 C       -11.2688933845       -1.0324016711       -0.4533591282
 C       -11.5251207939       -1.0352070544       -2.0020857733
 O       -10.9975682044       -1.8925818964       -2.6742068191
 C       -12.3760600518        0.0535804019       -2.4962952173
 C       -11.7162401634       -2.4690877888       -0.1037968489
 C       -12.0803511940       -0.0163978485        0.3373954376
 C        -5.3832040044       -4.7602672573       -0.5801647918
 C        -5.8537135616       -3.1002412611        1.2374772009
 C        -2.4644311510        2.6629002789       -0.0427270390
 C        -4.7330094046        2.6042826059       -0.9451851046
 C        -1.1423614218       -1.6502765878       -3.8121671030
 C        -0.7205217541       -0.4433034134       -6.0592654282
 C        -0.3618264052       -7.6796670768       -7.6513341741
 C        -2.5620278659       -7.1484773785       -8.8316117257
 C        -5.5193067600       -8.5965272938       -2.0834059344
 C        -5.6049396352       -8.9204866206       -4.5795934231
 C        -8.3945538126       -1.5885207383       -6.7825863680
 C        -9.7748950759       -3.7528632746       -6.8295475076
 C        -6.2693963028       -5.1385824480      -12.8185414085
 C        -3.7956252358       -4.7377410066      -12.1035376331
 C        -1.2477066353        0.4498990541      -15.4764398107
 C        -3.3282409252        0.6938989016      -17.0889044957
 C        -0.1388481470       -0.9543646967      -22.3147642861
 C         1.8841560602       -2.4110162661      -21.9159956605
 C         5.2011173547        3.4277331864      -24.6824260769
 C         5.4647201948        4.5851702260      -22.2549381188
 C        -2.3398479486        5.3652424447      -21.1520700002
 C        -1.7208845320        6.2591756295      -23.3908547324
 H        -1.3929528453        8.8869041136      -19.6280411880
 H        -1.7677385780        7.2578316261      -19.3143515802
 H        -2.8806766778        8.0437656720      -20.2538446448
 H         1.1419344667        6.9509156078      -22.6182181952
 H         0.8354603974        5.8497987955      -23.7731844849
 H         3.1100398008        5.5677668029      -21.6363897158
 H         3.2417342088        6.2540701918      -23.1634377851
 H         5.5545337732        0.5935551303      -23.0662390456
 H         4.1984024035        0.8587211722      -24.1050255866
 H         4.1291122686       -0.2507561679      -21.3713729579
 H         3.9455451308       -1.0421587911      -22.8911449759
 H         1.3983998806       -2.3447104706      -19.1684850611
 H        -0.2660486625       -2.1717623284      -19.8550842574
 H         0.8040520166       -0.7747612269      -17.3637163245
 H        -0.0589012594       -2.1817846892      -17.3703533597
 H        -4.1450108297       -0.8759929205      -14.9539930371
 H        -2.7966694272       -1.4740818338      -13.9085046779
 H        -3.7416853595       -3.9670479992      -14.5552800943
 H        -4.9643843163       -2.9909232042      -15.5710411589
 H        -7.9410518544       -3.9835574333      -10.9605197439
 H        -7.6242570626       -2.2668245599      -11.4580124040
 H        -8.7301826973       -2.1649326072       -9.7056167127
 H        -7.0891828616       -1.6838029230       -9.0143689975
 H        -8.1351968730       -5.5902279680       -6.2255397567
 H        -8.3666759686       -5.0895026357       -4.6386062624
 H        -5.6109833043       -5.1512659744       -4.6193870333
 H        -5.9272045502       -6.4030179575       -5.7671346889
 H        -2.7361882489       -8.9596985187       -3.6004669896
 H        -2.2208068707       -7.5708002270       -2.7044017000
 H        -0.9503908722       -7.7070756917       -4.5339234351
 H        -1.9221417807       -6.2177287927       -4.4404630294
 H        -3.1851603309       -4.5835305398       -7.3859086511
 H        -2.3500327221       -4.3689002615       -8.8876541008
 H        -2.4188542614       -2.1896921034       -8.0549614451
 H        -0.7772631931       -2.6827099532       -7.4138494347
 H        -3.5656373172        1.4258850789       -5.7667549855
 H        -2.1429795964        1.5245603035       -4.7644194388
 H        -4.7361818051        0.9276824422       -3.3866265986
 H        -4.2743376326        2.5545541515       -3.6414544417
 H        -1.8171623036        0.0436454950        0.3493080430
 H        -2.0985249368       -0.9893651269       -1.1680391223
 H        -3.6758030624       -1.6329163709        1.3504933622
 H        -2.4432188167       -2.5973922829        0.8294699893
 H        -7.2710857919       -0.5567582778       -1.1284778248
 H        -6.9416092797       -1.1878587858        0.4536171233
 H        -8.9719950723       -2.7084275010        0.3275730991
 H        -9.1101075093       -2.3915214075       -1.4341938024
 H       -11.6945374900        0.7305169378       -3.0092352844
 H       -12.9333720854        0.5714850538       -1.7219364295
 H       -13.1406523755       -0.3506811075       -3.2091434606
 H       -11.3769690506       -3.1472575462       -0.8562448232
 H       -12.7884133599       -2.5543713662        0.1081948601
 H       -11.1815173181       -2.9804019790        0.7734766379
 H       -11.9686526726       -0.1973161522        1.3863996715
 H       -13.1430466124       -0.1054674051        0.1265237838
 H       -11.7490878252        1.0355519584        0.1530927220
 H        -6.2205294661       -5.2129131499       -0.0042812434
 H        -4.4827270316       -5.3244436070       -0.3516272472
 H        -5.4461106775       -4.7556107708       -1.6945029304
 H        -6.9539031440       -3.1475905722        1.2996854537
 H        -5.5336402518       -2.1405459093        1.7909723213
 H        -5.3453645586       -3.8055971340        1.8501363859
 H        -1.6539709753        2.1315854139        0.4461457414
 H        -2.8887675492        3.1074950946        0.7815337928
 H        -2.0490030355        3.5389242379       -0.5954819905
 H        -5.2061319130        2.5220922869        0.0626262618
 H        -5.3769711372        1.9242391169       -1.5139557962
 H        -4.6463780463        3.6638622606       -1.0975778398
 H        -0.3522175639       -2.3562462201       -4.0287126068
 H        -1.9245346104       -2.2354756217       -3.1923431296
 H        -0.7699187408       -0.7302733924       -3.2788971930
 H         0.1131494433       -1.0658730936       -6.2373959181
 H        -0.3143929975        0.3740568678       -5.4720110045
 H        -1.2165660981       -0.1104075472       -6.9419147453
 H         0.4565061092       -6.9791611305       -7.3976926920
 H        -0.3301833099       -8.1259332823       -8.6720719256
 H        -0.2823263272       -8.4881227297       -6.9188236037
 H        -3.6447804320       -6.9217504721       -8.7222162128
 H        -2.5700811272       -8.2291231675       -8.9741309352
 H        -2.1289227275       -6.6549632640       -9.7069416682
 H        -4.6272532896       -9.0553725218       -1.7563386905
 H        -6.2241028078       -9.3543665188       -2.1445972812
 H        -5.8303900447       -7.9598516843       -1.2880819098
 H        -6.6108149189       -9.3935481503       -4.4524959217
 H        -4.9343489072       -9.8065617639       -4.4656106592
 H        -5.5147878458       -8.5733896497       -5.5852633730
 H        -9.0210991325       -1.0094716094       -7.4004651999
 H        -7.3186862690       -1.3270898491       -6.8750467412
 H        -8.8345827125       -1.5197563962       -5.7954038020
 H        -9.7859420735       -4.8041926220       -6.9287202072
 H       -10.6277467681       -3.3581862062       -7.4018228524
 H       -10.0240147953       -3.4908631682       -5.8320975155
 H        -6.5806327058       -5.7801624139      -11.9660792980
 H        -5.8017077938       -5.7674259045      -13.5378751521
 H        -7.1246724080       -4.4978419916      -13.2993931466
 H        -2.9848954423       -4.1198915528      -11.8639261697
 H        -3.5078656778       -5.4195942231      -12.8740268165
 H        -3.8203438241       -5.3996048315      -11.1500076823
 H        -0.8707729411       -0.4677580922      -14.8456842544
 H        -1.7727214652        1.1794425755      -14.8823600773
 H        -0.4389381346        0.9234311132      -16.0359003159
 H        -3.8773236873        0.1714751396      -17.8098423244
 H        -2.9359531490        1.6280160580      -17.5412684141
 H        -3.8395403988        0.8051976702      -16.1213055594
 H        -0.3058197116       -1.1195069019      -23.4534608821
 H        -0.6454346796       -0.0062450968      -22.0800091489
 H        -0.7198210012       -1.6927693906      -21.8112735970
 H         2.5166355620       -2.5827157691      -22.8233778738
 H         1.1785946899       -3.2005328410      -21.9354293149
 H         2.4697978885       -2.6197089193      -20.9928591849
 H         4.5351156206        2.8469878096      -25.3100292025
 H         5.9829386532        2.7091236554      -24.4563520252
 H         5.5001758317        4.3095481073      -25.2366959291
 H         5.2625790165        5.6949227117      -22.3522655356
 H         6.4359386179        4.1901472613      -22.4961938191
 H         5.3456068007        4.2586846015      -21.2384705987
 H        -3.3134426217        5.8653567645      -21.4480954076
 H        -2.2771306363        5.4032310431      -20.0571726711
 H        -2.5047944144        4.3358329602      -21.4854676790
 H        -1.2595261964        7.0514268061      -23.9579528900
 H        -2.7110207799        6.5569364466      -23.4882452747
 H        -1.6594633624        5.2632558854      -23.8319546737
 Na       -4.6226891251       -3.0713186336       -3.8155295591
 Na        1.8248051803        2.7303706086      -21.0877749284
