232

 C        -1.7950450557        8.2401694518      -20.0317812936
 C        -0.8435769513        7.6515126244      -21.0790453649
 O         0.0857425225        8.3318103865      -21.4948140971
 C        -1.0760820177        6.1986450591      -21.6953477799
 C         0.3596043962        5.5567029353      -22.0854635585
 O         0.7954330683        4.6338135800      -21.3627200911
 C         1.1439953690        6.2481081213      -23.1333203219
 C         2.5863197656        5.7997910290      -23.4293079589
 C         2.7544012754        4.2818303932      -23.5847255562
 O         1.7457559336        3.6373592243      -23.8200724421
 C         4.2903718733        3.5265319361      -23.5348942069
 C         4.1648836711        2.3057272443      -22.5654538514
 O         3.8290365009        2.4865771798      -21.4107254139
 C         4.4668931269        0.9122961888      -23.0565434935
 C         3.7749406368       -0.2613971729      -22.2454211708
 C         2.2516511306       -0.0528837940      -22.1860938160
 O         1.8766374396        1.0909577266      -22.6626969138
 C         1.3126803874       -1.0909321410      -21.7351392585
 C         0.9298379248       -0.6140029409      -20.2461374028
 O         0.7412716681        0.5581834235      -19.9030840141
 C         0.5649355544       -1.7344910099      -19.2892176749
 C        -0.0235667101       -1.1955341748      -17.9196578300
 C        -1.5840792009       -0.5133085507      -17.9337231462
 O        -2.0563378067       -0.2782815286      -19.0275415743
 C        -2.3262874876       -0.3428414659      -16.5561531511
 C        -2.5009949476       -1.7836312280      -15.9688910497
 O        -2.2070673323       -2.7732765396      -16.5876361372
 C        -3.1476504608       -1.7525985765      -14.5278425455
 C        -4.2461125540       -2.8266733738      -14.4578310535
 C        -4.9690113366       -2.7909518217      -12.9889710488
 O        -5.1446728987       -1.7292999638      -12.3767084977
 C        -5.3831120567       -4.2162357512      -12.2680751233
 C        -5.8568556840       -3.8726688297      -10.7951915094
 O        -5.1645295252       -4.0395506938       -9.8041033475
 C        -7.2958062556       -3.2358296296      -10.7757589620
 C        -7.6751374934       -2.5926468946       -9.4897984830
 C        -8.1441907009       -3.6412609619       -8.3610470277
 O        -8.1892762674       -4.7788154268       -8.5961078361
 C        -8.6441551888       -3.1320899683       -6.8627973812
 C        -7.5411235080       -3.8651995189       -5.9669106131
 O        -6.6098444665       -3.2059201015       -5.4818181514
 C        -7.5955429031       -5.3844870411       -5.8438908881
 C        -6.2304988494       -6.0890295839       -5.3793529875
 C        -6.3791258612       -6.6980877432       -3.9339712838
 O        -7.4177761779       -6.6395912282       -3.3208089514
 C        -5.1808004774       -7.7156138749       -3.5502440289
 C        -3.8499950621       -6.9115817601       -3.7689472825
 O        -3.8272107724       -5.6997907002       -3.5732052064
 C        -2.4395956522       -7.6643886104       -3.7386804015
 C        -1.5857504147       -7.1045120679       -4.9038202477
 C        -2.3122033157       -7.1039698575       -6.2491163045
 O        -3.5171803658       -7.1582856877       -6.2015645505
 C        -1.5236348479       -6.6762587639       -7.4736377058
 C        -1.0111807436       -5.1897316605       -7.1950350441
 O        -0.0018906278       -4.9809321210       -6.5367674350
 C        -1.8883974249       -4.0896578793       -7.9361321431
 C        -1.6582645130       -2.6992026807       -7.4568488977
 C        -2.2716393747       -2.4061802766       -5.9904601661
 O        -3.0072009826       -3.2487933671       -5.5117529173
 C        -1.9581189166       -1.0145321401       -5.2644225662
 C        -3.3122708589       -0.2912992196       -4.7072728090
 O        -4.3339267930       -0.9079385394       -4.4487311671
 C        -3.2555506057        1.2447607009       -4.7476937723
 C        -3.7957826539        1.8354537600       -3.4281878621
 C        -2.8505881937        1.6238682041       -2.2008523692
 O        -1.7442339090        1.1975661767       -2.3476189617
 C        -3.3997159395        1.6906596472       -0.7418223514
 C        -3.6326644895        0.1035996090       -0.4435190819
 O        -4.6883178445       -0.3469633731       -0.7202163903
 C        -2.5728684327       -0.7577861870        0.2823435017
 C        -2.9829917335       -2.1821415174        0.4788810414
 C        -3.9669595193       -2.7081857869       -0.5622960485
 O        -3.5232561931       -2.8842091229       -1.7013356389
 C        -5.4084487175       -3.2616262992       -0.2594790713
 C        -6.3889337232       -2.6503192257       -1.2721304259
 O        -6.5081503838       -3.1070725702       -2.3847445721
 C        -7.2889677759       -1.4732453245       -0.6473406588
 C        -8.7810091544       -1.9375389270       -0.5946418275
 C        -9.7576801762       -0.6838872321       -0.3684842730
 O        -9.3586660986        0.4549651002       -0.6275887816
 C       -11.2981074522       -1.0319412207       -0.2443373668
 C       -11.6099217904       -1.1621162195       -1.8312425697
 O       -11.3841749452       -2.2449736395       -2.3431490064
 C       -11.9166715309        0.0453044815       -2.7335894804
 C       -11.6882551722       -2.3619415726        0.3821517823
 C       -12.2208646388        0.0854786942        0.3114676289
 C        -5.2609780587       -4.8086823064       -0.5947424208
 C        -5.7595234399       -3.2292436147        1.2292207161
 C        -2.3380106640        2.2544736164        0.2234319464
 C        -4.6694684227        2.4430728245       -0.6955751122
 C        -1.0248717203       -1.4177685049       -4.1335646485
 C        -1.1260820179       -0.0048449759       -6.1783952410
 C        -0.1977874449       -7.5262597693       -7.5850283886
 C        -2.3994987680       -6.7616456180       -8.8214638903
 C        -5.2538855654       -8.0297792390       -2.0011934485
 C        -5.2664805024       -9.0547781140       -4.3646186760
 C        -8.6198251329       -1.5844809557       -6.7749209398
 C       -10.1052183115       -3.5952603333       -6.6891865958
 C        -6.5352298092       -4.8513253505      -13.1897721814
 C        -4.0717781899       -5.1799056245      -12.2895329481
 C        -1.3545065270        0.5376335718      -15.6637508451
 C        -3.6548904757        0.4733598837      -16.8926704540
 C        -0.0572288398       -0.8421913201      -22.4431010794
 C         1.8319451310       -2.5320984334      -21.8561011217
 C         4.5564750647        3.3159831017      -25.0450287696
 C         5.3175910969        4.5452767639      -22.9009686701
 C        -1.7437257580        5.2507856276      -20.6987017145
 C        -2.0726849186        6.3960764505      -22.8548030961
 H        -1.5640442327        9.2569410391      -19.8477490091
 H        -2.0460974173        7.6101451337      -19.1488797962
 H        -2.7460230895        8.3549916729      -20.5459391193
 H         1.1269650722        7.2751379639      -23.0124852549
 H         0.5203913991        6.1072305791      -24.0703856589
 H         3.2064239669        6.0861015466      -22.5590579814
 H         3.0595858495        6.3479152788      -24.2362222259
 H         5.5387491280        0.8555045949      -23.1250799773
 H         4.1260367086        0.7518673304      -24.1678784945
 H         4.1753475546       -0.1645283789      -21.3083294015
 H         4.0705890375       -1.2267528413      -22.6864729659
 H         1.4530543040       -2.3516268774      -19.0558330978
 H        -0.1843897635       -2.2411622857      -19.8126018882
 H         0.7786705737       -0.5951962407      -17.5303579703
 H         0.0096715041       -2.0518713689      -17.2464237525
 H        -3.6564633867       -0.7595501876      -14.4516184803
 H        -2.2968059706       -1.9015350773      -13.8408163989
 H        -3.8979872049       -3.8400644045      -14.6532352967
 H        -5.0356850652       -2.6183328537      -15.2346715030
 H        -8.0828256032       -4.0594784379      -10.9708260666
 H        -7.4381424083       -2.3656101146      -11.4462180326
 H        -8.5543199126       -1.8579450702       -9.4401632840
 H        -6.7482071981       -2.1788146488       -8.9746067192
 H        -8.0957434435       -5.8541885462       -6.6588429480
 H        -8.2949348663       -5.4358464118       -5.0413807131
 H        -5.2402411652       -5.7190366242       -5.8010971092
 H        -6.2647483389       -6.9822911048       -5.9986379562
 H        -2.5715896928       -8.7157637205       -3.9380128984
 H        -1.8731653447       -7.5676735226       -2.7904337182
 H        -0.6416157839       -7.6283365249       -4.9103858216
 H        -1.5333086318       -6.1260224959       -4.6161706489
 H        -2.9018628469       -4.4250520202       -8.0859617933
 H        -1.4092585086       -4.1960115439       -8.9230493700
 H        -2.0971252984       -2.0810455944       -8.2113202542
 H        -0.5497311139       -2.5250053866       -7.4066077999
 H        -3.7631069887        1.7271623321       -5.5734611452
 H        -2.2776100395        1.5975352446       -4.8078904965
 H        -4.7119484597        1.4632001444       -3.1369327074
 H        -3.9474977469        2.8985825535       -3.6122797995
 H        -2.3961801264       -0.2868127070        1.2691712054
 H        -1.6371999018       -0.5457357596       -0.2090112436
 H        -3.1650212422       -2.2289726075        1.5779856324
 H        -2.0209182761       -2.6609873604        0.4047893724
 H        -7.1747231267       -0.6371065930       -1.3056627194
 H        -6.9667300224       -1.2189043682        0.3589680629
 H        -9.0042212538       -2.6345998835        0.2761779858
 H        -9.2270414744       -2.3301954936       -1.5217563013
 H       -11.3198070975        0.9236328853       -2.4049456815
 H       -13.0069542088        0.2839534616       -2.8305174951
 H       -11.4662239608       -0.1938504767       -3.6702572871
 H       -11.2413573001       -3.3181355272        0.0090595626
 H       -12.8056148438       -2.5495518708        0.4290340227
 H       -11.4534795567       -2.3066002379        1.4288339749
 H       -11.8630044492        0.2256739149        1.3088948495
 H       -13.2703949596        0.0092157370        0.2811694021
 H       -12.0457563738        0.9340497809       -0.3150352701
 H        -6.2579042580       -5.2284326124       -0.6184862822
 H        -4.7674096613       -5.1909242896        0.3427068277
 H        -4.7949747414       -5.0461248957       -1.5825072797
 H        -6.7970641386       -3.5956937987        1.4850326840
 H        -5.6916847267       -2.2528630672        1.6013738285
 H        -5.1662753209       -4.0066317891        1.8492625384
 H        -1.3927874118        2.0053134733       -0.2135109254
 H        -2.4504230586        1.9953670204        1.2960498975
 H        -2.1642924389        3.2799359696        0.2560452037
 H        -4.7960835271        2.8386686849        0.3205841332
 H        -5.5746687155        1.8124707682       -0.9109662090
 H        -4.5443104531        3.3657546184       -1.3598200483
 H         0.0165267056       -1.7668487366       -4.5319404180
 H        -1.4497997295       -2.2855943634       -3.6014720883
 H        -1.0448414351       -0.6040381583       -3.3898722809
 H        -0.3033768086       -0.5274577848       -6.6631775898
 H        -0.7690697842        0.8480650215       -5.6182522478
 H        -1.6965175737        0.4400307972       -6.9750106282
 H         0.2021606206       -7.7500801054       -6.6311467019
 H         0.6273382589       -6.9452252542       -7.9367751124
 H        -0.3128703870       -8.2901098263       -8.3669425923
 H        -3.4205314699       -6.3779761492       -8.6761395445
 H        -2.4960672522       -7.8465676379       -9.0179375819
 H        -2.0179523925       -6.1715827982       -9.6762714171
 H        -4.8015884434       -8.9503640520       -1.7434322365
 H        -6.2902560364       -8.0449027513       -1.6911391872
 H        -4.8104578768       -7.2628337310       -1.3889637126
 H        -6.2054191608       -9.5533060972       -4.5048084381
 H        -4.6088957100       -9.7909996612       -3.9335650150
 H        -4.8887874901       -8.7881712672       -5.3875590243
 H        -9.4397761779       -1.2307698883       -7.4081832769
 H        -7.5981663100       -1.2358979330       -6.8571919021
 H        -8.9256472653       -1.4347882924       -5.7571026215
 H       -10.0990922764       -4.6767366248       -6.7746265663
 H       -10.9573591951       -3.2415556313       -7.2581908391
 H       -10.3759606842       -3.3246650707       -5.6565526582
 H        -7.0292994481       -5.6028019790      -12.5262076448
 H        -5.9798989953       -5.2020998540      -14.1361429411
 H        -7.2487460303       -4.1272287079      -13.4724263783
 H        -3.2752519794       -4.6638785390      -11.7464403014
 H        -3.6505986749       -5.4818208255      -13.2949388289
 H        -4.1476500688       -6.1084808047      -11.8635606326
 H        -0.3878519545        0.5256228122      -16.1342371809
 H        -1.4749530974        0.0697070775      -14.6660903937
 H        -1.7969695400        1.5638645405      -15.6298263955
 H        -4.4212392773       -0.3156272716      -17.1360632805
 H        -3.4342047007        1.2104073801      -17.6620423715
 H        -3.9239434011        1.0587643784      -16.0312494647
 H        -0.3351596898       -1.4661887664      -23.2704274619
 H        -0.1836865269        0.2328427224      -22.6260097800
 H        -0.8777878628       -1.2085573667      -21.7223482253
 H         2.7254009882       -2.4801512892      -22.4711448870
 H         1.0566265733       -3.1947367592      -22.3624004174
 H         2.1925365062       -2.9114310780      -20.9096405611
 H         3.6404431182        2.8873847808      -25.4298116153
 H         5.4708654510        2.8171132214      -25.3030251372
 H         4.7277214727        4.2790431573      -25.5383908755
 H         5.1214690333        5.5252977898      -23.2589386572
 H         6.3254433474        4.2373289738      -23.2681980086
 H         5.1324276028        4.3882709045      -21.8315939363
 H        -2.8313833899        5.3205690084      -20.8094312467
 H        -1.3139854610        5.3989833803      -19.6996285576
 H        -1.4924269421        4.2076762996      -20.9719085783
 H        -1.6228041837        6.8918979470      -23.6735916422
 H        -3.0523024738        6.7733682093      -22.5066861966
 H        -2.2645661945        5.4501468960      -23.2737251322
 Na       -4.5569142604       -3.3610477462       -3.8707511644
 Na        1.3523306778        2.6225951458      -20.8442186782
