232

 C        -1.7146799190        8.6293681000      -20.1018733924
 C        -0.6057991994        7.8712729890      -20.8741611569
 O         0.4061945590        8.3950728393      -21.2157598138
 C        -0.9082002694        6.2883640002      -21.2922284326
 C         0.4794838621        5.7294131107      -21.7759358059
 O         1.0843104683        4.9231128402      -21.0515183604
 C         1.0428645373        6.2411935961      -23.0577148453
 C         2.4540682876        5.8851972742      -23.5101937427
 C         2.5681548917        4.4000921986      -23.6294385327
 O         1.5607910895        3.7242103741      -23.7109670439
 C         3.8501775725        3.6066491260      -23.9730329629
 C         3.8211913886        2.4034460763      -22.8359963507
 O         3.5904448520        2.7664215626      -21.6974714508
 C         4.1388657316        0.9468847708      -23.0646673046
 C         3.3712652392       -0.0003717540      -22.1377212675
 C         1.8445109252       -0.1595594989      -22.4841686684
 O         1.2644885829        0.4871702543      -23.3015790834
 C         1.1106428249       -1.1815108426      -21.5035050898
 C         0.8453244591       -0.4823821250      -20.1183200347
 O         0.8233966982        0.7909239341      -20.1319262901
 C         0.5535194480       -1.4955830041      -18.9334379154
 C        -0.2180141367       -0.7468250703      -17.8500463738
 C        -1.7318923933       -0.7132137797      -17.9909047476
 O        -2.2995268626       -0.9043017359      -19.0561023209
 C        -2.5438334493       -0.3973824052      -16.6335152177
 C        -2.7552408176       -1.6844752584      -15.8054307404
 O        -2.4302173154       -2.7371825630      -16.3349684127
 C        -3.5788820409       -1.6490222496      -14.4411824857
 C        -3.8732722508       -2.9745701474      -13.8571770340
 C        -4.6353257342       -3.0355387649      -12.5254057773
 O        -4.3607504271       -2.1514158725      -11.7028142586
 C        -5.3778239222       -4.2924677847      -12.3017650905
 C        -5.9483742737       -4.1547561409      -10.7761783090
 O        -5.4406421225       -4.7445261971       -9.8894608308
 C        -7.2193336153       -3.2334863506      -10.5584469369
 C        -7.2191646168       -2.8139446749       -9.0421046732
 C        -8.3466745191       -3.5153347634       -8.2703156624
 O        -9.1820862224       -4.1095420356       -8.8318964601
 C        -8.3801885392       -3.3103368684       -6.7227582446
 C        -7.2957706311       -4.2625555911       -6.0661806202
 O        -6.3048855626       -3.7251004140       -5.6646794015
 C        -7.7103800679       -5.8136733275       -5.8486308555
 C        -6.5207428140       -6.6637478610       -5.5873113872
 C        -6.0544661057       -6.8023112960       -4.1411153065
 O        -6.5875468865       -6.1774062285       -3.2566271560
 C        -4.7599158966       -7.7426677884       -3.7367519689
 C        -3.4913233672       -6.8249693336       -3.8195910475
 O        -3.4758134953       -5.6184031652       -3.7537997883
 C        -2.1564120922       -7.4843914868       -3.9678593162
 C        -1.2504427747       -6.6670704203       -4.9360322626
 C        -1.8994346751       -6.7737083428       -6.2616776967
 O        -3.0579695744       -7.1360322342       -6.3070734904
 C        -1.1722374989       -6.3810319789       -7.5163350058
 C        -0.8568500620       -4.8267721251       -7.3657385312
 O        -0.0534074559       -4.3466894114       -6.5781934826
 C        -1.8947074568       -3.7378446162       -8.1430219920
 C        -1.5580947609       -2.3536595146       -7.5386407938
 C        -2.4938281365       -2.1289060005       -6.3151259916
 O        -3.3741085601       -2.9225030160       -6.0810717452
 C        -2.0950925839       -1.0010649670       -5.3561965171
 C        -3.2006803476       -0.4841676287       -4.4282189625
 O        -3.8780051423       -1.2355489374       -3.7529681876
 C        -3.5237433761        0.9826078075       -4.4312190457
 C        -4.0544447974        1.4480330405       -3.0502670438
 C        -2.9300086317        1.6690409746       -2.0401434644
 O        -1.8142173556        1.8719924477       -2.4409261588
 C        -3.2677760512        1.6310221853       -0.4983704914
 C        -3.5734114126        0.0682966156       -0.0330569078
 O        -4.7165501147       -0.2199501670        0.2004502277
 C        -2.4772982176       -0.9347798527       -0.0776191389
 C        -2.9702272281       -2.3019543377        0.3811963639
 C        -3.8754322030       -3.0923486494       -0.6307084671
 O        -3.4467375688       -3.3577168081       -1.7351286377
 C        -5.3283356032       -3.4610346236       -0.3483825530
 C        -6.3495604360       -2.5616870042       -1.2849975946
 O        -6.3118588890       -2.6421051183       -2.4591960485
 C        -7.3501303731       -1.5207814700       -0.6342051943
 C        -8.8415487244       -1.8743689578       -0.5952537864
 C        -9.9548042263       -0.6889610798       -0.8125476650
 O        -9.5472122257        0.4965004574       -0.9837763669
 C       -11.3937139927       -1.0007777165       -0.5236060904
 C       -11.9945085614       -1.3926206364       -1.9495792078
 O       -12.3385702313       -2.5740097577       -2.0634129701
 C       -12.0547326580       -0.3201563240       -2.9959948228
 C       -11.5522017274       -2.2021567047        0.4346321670
 C       -12.0986244616        0.2725527487        0.0541779273
 C        -5.4504837078       -4.9936057558       -0.8863468096
 C        -5.5937432320       -3.4162091946        1.1444701651
 C        -1.9034140347        2.0647117265        0.2437757709
 C        -4.4419809968        2.5753648614       -0.1312229306
 C        -1.0927762912       -1.7922258003       -4.3740522305
 C        -1.2567856282        0.2423017455       -6.0070546823
 C         0.1677832148       -7.2128231418       -7.5841062654
 C        -2.0732107381       -6.5222850568       -8.8032608857
 C        -4.8444745321       -8.0620066637       -2.0943615870
 C        -4.6945971782       -9.0510354517       -4.6784997937
 C        -8.0120582865       -1.8831000264       -6.2579931890
 C        -9.8385701753       -3.6280287373       -6.2993516765
 C        -6.5806451596       -4.2645827034      -13.2915357958
 C        -4.5432925607       -5.6327324660      -12.4794687026
 C        -1.7567973227        0.7198376589      -15.7637883720
 C        -3.9470726322        0.2573888787      -17.0490511576
 C        -0.3873391255       -1.3169897408      -22.1380466069
 C         1.9321897499       -2.4935365544      -21.4986555993
 C         3.8778737241        3.0329947745      -25.4423223949
 C         5.0701444630        4.5392266508      -23.7078855116
 C        -1.4300132116        5.5236498856      -19.9980850795
 C        -1.9321965660        6.2463090065      -22.4756105949
 H        -1.6941176575        9.6414886581      -20.3936092382
 H        -1.4042793256        8.5824641873      -19.0490477315
 H        -2.7263067732        8.3124645532      -20.2206091762
 H         1.0405038566        7.2688685572      -23.0231494565
 H         0.3401496548        5.8076986385      -23.9041862724
 H         3.2708979561        6.2693899373      -22.8291649866
 H         2.5955184850        6.2443803178      -24.5189348760
 H         5.1507521565        0.8336439100      -23.1191687158
 H         3.8350682342        0.5288586655      -24.1118166608
 H         3.3347521458        0.3293588220      -21.0798953745
 H         3.9284740219       -1.0472852224      -22.1903227354
 H         1.5020295485       -1.9485441461      -18.5486196873
 H        -0.0225032575       -2.3708474574      -19.3290386907
 H         0.1611087009        0.3102017945      -17.9059612304
 H         0.1069992594       -1.1929682489      -16.9051862701
 H        -4.4669338967       -1.0704736270      -14.6612072647
 H        -3.0923914552       -0.9704906917      -13.7864281889
 H        -3.0089137671       -3.5740311076      -13.5437529069
 H        -4.4584148624       -3.4962295669      -14.5858493032
 H        -8.1599171228       -3.6655709601      -10.7285809266
 H        -7.1850476404       -2.3396536012      -11.1662586213
 H        -7.5416143681       -1.8370985287       -8.8752495359
 H        -6.3056287515       -2.8624993728       -8.5348009388
 H        -8.2958708268       -6.1955474169       -6.7422744512
 H        -8.4288542919       -5.8062764191       -4.9448186935
 H        -5.6396637072       -6.4439834821       -6.2387837817
 H        -6.7238429239       -7.6440559654       -5.9622963361
 H        -2.1896898053       -8.5348709144       -4.1655853283
 H        -1.6599555995       -7.3395309163       -2.9847200206
 H        -0.1770411000       -7.1674981176       -5.0145114634
 H        -1.0953284564       -5.6783030214       -4.4209158173
 H        -2.8786839432       -4.1127999282       -8.3127902697
 H        -1.3145475948       -3.6992443324       -9.0772917265
 H        -1.6065382741       -1.5021153045       -8.1759060525
 H        -0.4871605274       -2.3369205608       -7.1255913135
 H        -4.3027791730        1.2553395553       -5.2301127901
 H        -2.6514951981        1.6384296645       -4.6344405971
 H        -4.7941869756        0.7680364755       -2.6195049944
 H        -4.5761930405        2.5028715239       -3.1712009436
 H        -1.5501239152       -0.5783905198        0.2978368689
 H        -2.1482882125       -0.9084256793       -1.1383995265
 H        -3.2690717350       -2.0744901597        1.4442999330
 H        -2.0371138100       -2.8042162382        0.3138576174
 H        -7.1781213288       -0.6171757247       -1.3096931219
 H        -6.9443042864       -1.1658711098        0.3649126823
 H        -9.0723114099       -2.3924604781        0.3528430259
 H        -9.0507037569       -2.5941537694       -1.3549836686
 H       -11.0484950108        0.0049840914       -3.1964872963
 H       -12.6102333437        0.5571836380       -2.6654454453
 H       -12.5088880728       -0.7191735036       -3.8775122953
 H       -10.9184809379       -3.1068855327        0.2832339683
 H       -12.6462714323       -2.5549645654        0.4976443030
 H       -11.3141330072       -1.7809150632        1.3821807215
 H       -11.5795867258        0.6464816996        0.9510301372
 H       -13.0889180399        0.0370342593        0.4121533899
 H       -11.9546249868        1.1657428643       -0.5463770077
 H        -6.4605607779       -5.0711967749       -1.2498943714
 H        -5.1714301836       -5.7487562481       -0.1094304809
 H        -4.8648220578       -5.2204337222       -1.8137117810
 H        -6.6176901747       -3.3671327653        1.4737392334
 H        -5.1359956976       -2.5685624331        1.5099996029
 H        -5.0749104670       -4.2216685140        1.7237682608
 H        -1.0112481544        2.2125133279       -0.4262741178
 H        -1.5332336663        1.1656221601        0.8554792398
 H        -1.9053347140        2.9221087939        0.9031598110
 H        -4.3278139347        2.7070392711        0.9031292074
 H        -5.3999972257        2.1923084997       -0.4527631689
 H        -4.3761305666        3.4809515542       -0.7141656717
 H        -0.2242793970       -2.1452353243       -4.9839506199
 H        -1.6610730358       -2.5291404288       -3.9283613070
 H        -0.5874677052       -1.2089868750       -3.6737840639
 H        -0.4611293117        0.0626388407       -6.6708611194
 H        -0.8428678685        0.8070192196       -5.2090638225
 H        -1.8534870546        0.9538324716       -6.5266791156
 H        -0.0195913546       -8.0402786428       -8.2544253378
 H         0.5924183586       -7.5005332622       -6.6526420107
 H         0.9870198893       -6.7227827631       -8.1578805167
 H        -3.1075225975       -6.3635096703       -8.5429270113
 H        -1.9742183533       -7.5026648082       -9.2400738653
 H        -1.7167082250       -5.9032804492       -9.6081526509
 H        -4.1107524272       -7.4480227519       -1.6253325003
 H        -4.6197116774       -9.1349919867       -1.9662847894
 H        -5.7619971608       -7.7650264275       -1.6495268924
 H        -5.6450622351       -9.6207812406       -4.6350442034
 H        -3.7670323239       -9.6557706569       -4.6113391945
 H        -4.5975135970       -8.6896691545       -5.7776391148
 H        -8.6152171623       -1.1302171764       -6.8073169970
 H        -6.9507152554       -1.6752259347       -6.4206895787
 H        -8.2439536316       -2.0306277169       -5.2309579318
 H       -10.0442620592       -4.6296087386       -6.5116659705
 H       -10.5648906546       -2.9550690362       -6.7445870285
 H        -9.9123292298       -3.6714273607       -5.2463374253
 H        -7.3580411056       -4.8826103582      -12.9567911068
 H        -6.2212428929       -4.7318315837      -14.2010107889
 H        -6.8450645992       -3.3129378555      -13.4036609762
 H        -3.7308578545       -5.5934980224      -11.6739430453
 H        -3.9237710144       -5.8722328650      -13.3606758958
 H        -5.1615250399       -6.4508428623      -12.1502611111
 H        -0.8029843745        0.3548675338      -15.5017363818
 H        -2.2994614036        0.7735507664      -14.7807423905
 H        -1.7004560892        1.6570231358      -16.3556425559
 H        -4.5805765579       -0.4613746468      -17.6851566171
 H        -3.6592149079        1.1522030091      -17.6206894354
 H        -4.4191356008        0.4993766966      -16.0825153314
 H        -0.2194141971       -1.8790599226      -23.0050040594
 H        -0.7902502216       -0.3588005328      -22.5008161264
 H        -1.1873927185       -1.7590311953      -21.4792035963
 H         2.4664947244       -2.6629836367      -22.4136116139
 H         1.1443397807       -3.2794931389      -21.3949741303
 H         2.5796161193       -2.5342247771      -20.6654461066
 H         2.9467385689        2.3683530064      -25.6041620427
 H         4.7263358258        2.2774213823      -25.4628074588
 H         3.9094665039        3.8201127406      -26.2694914336
 H         4.7350016027        5.4819952527      -24.0954384294
 H         5.9119411975        4.1788434032      -24.3326206246
 H         5.2270698337        4.5263891670      -22.6415208258
 H        -2.2790077906        6.0483259678      -19.5150575945
 H        -0.6115317611        5.5863538929      -19.2660111903
 H        -1.5473639911        4.5090447159      -20.3350166734
 H        -1.6471170594        6.9568499490      -23.2715440824
 H        -2.9902426747        6.5900759560      -22.1398649414
 H        -1.9241583450        5.1875286310      -22.7616101527
 Na       -4.5208705997       -3.4767206392       -3.9382789107
 Na        1.0223828872        2.7076398093      -21.9131303353
