232

 C        -1.5787875883        8.6431258624      -20.0826817746
 C        -0.5463284657        7.9458585159      -20.8725562388
 O         0.5614429217        8.4048038892      -21.1480221604
 C        -0.9036382180        6.3957916990      -21.2072213633
 C         0.3811779747        5.7144212653      -21.7356297619
 O         0.8980749235        4.7584494898      -21.1509336981
 C         1.0672453966        6.3525122061      -22.9719111042
 C         2.5022420257        5.7722596553      -23.2165038503
 C         2.4167773123        4.3489966664      -23.7840753336
 O         1.3594437023        3.6896113140      -23.8978347229
 C         3.7554230783        3.6064060813      -24.1349364659
 C         3.6103282207        2.4960753828      -23.0802240483
 O         3.3348164298        2.7448150214      -21.8772199278
 C         3.8803688506        1.0038093719      -23.3622574413
 C         3.4265378424        0.0168882180      -22.2109527607
 C         1.8730508852       -0.1593045239      -22.4722419689
 O         1.3405526872        0.5657582716      -23.3295980435
 C         0.9878816929       -1.1518085417      -21.5225947781
 C         0.7387498339       -0.2931369335      -20.2164955290
 O         0.6791626892        0.9079832066      -20.1950358872
 C         0.6393768626       -1.2030520741      -18.9563548481
 C        -0.1526299429       -0.5683031821      -17.7705454387
 C        -1.7113230382       -0.6087768684      -17.9530042587
 O        -2.2608214937       -0.9958498806      -18.9498202311
 C        -2.6208155208       -0.2269123248      -16.6290219890
 C        -2.8196491781       -1.6828670806      -15.8505817437
 O        -2.1868677234       -2.6174889705      -16.2313949165
 C        -3.7809087754       -1.7190746143      -14.6139594253
 C        -3.6667825314       -3.0953241119      -13.9055297170
 C        -4.4405777867       -3.1336142492      -12.5870545331
 O        -4.1676331345       -2.3314731487      -11.7390082829
 C        -5.4236089640       -4.3695180108      -12.1938497799
 C        -5.9522163649       -4.2740966346      -10.6543715474
 O        -5.3968086820       -4.9616555558       -9.7707762659
 C        -7.0813905266       -3.2312200342      -10.3642803466
 C        -7.1803694590       -2.7399232309       -8.9723151298
 C        -8.3252810498       -3.3859665724       -8.1943575411
 O        -9.2967712073       -3.7596345211       -8.8579891780
 C        -8.3518007349       -3.4174782832       -6.6567533500
 C        -7.2646271370       -4.4000260148       -5.9762947889
 O        -6.1611242765       -3.9724429187       -5.6539931924
 C        -7.7162481355       -5.8681886560       -5.7276121881
 C        -6.3655288277       -6.7302908185       -5.6496077338
 C        -5.8326710311       -6.8215508221       -4.1920367010
 O        -6.4244314675       -6.1669431747       -3.3705879163
 C        -4.6949872125       -7.8322735351       -3.7819278925
 C        -3.3789414236       -6.9362253258       -3.8884650209
 O        -3.3703540716       -5.6973978294       -3.8573553533
 C        -1.9419540242       -7.4813344853       -3.9442339543
 C        -1.1412667871       -6.6928096414       -5.0347337009
 C        -1.8005028891       -6.6791471551       -6.3440101515
 O        -2.9291476574       -7.1407118614       -6.3877638847
 C        -1.0678140687       -6.2492741049       -7.5953033357
 C        -0.8845712153       -4.6069357685       -7.3133145990
 O         0.0519678618       -4.2853867674       -6.5965480594
 C        -1.7578306785       -3.6454526347       -8.1873130880
 C        -1.8107459721       -2.2621918315       -7.6252135089
 C        -2.5379892701       -2.0819117251       -6.2697868730
 O        -3.4550944630       -2.8181071230       -6.0281164615
 C        -2.0330602990       -0.9737509355       -5.2488979710
 C        -3.3141162353       -0.4212358868       -4.3845858854
 O        -3.9258310148       -1.1720506726       -3.6690630610
 C        -3.6529090370        1.0811866764       -4.3445250212
 C        -4.0883132000        1.3981126849       -2.8899276552
 C        -2.8610163840        1.6452805164       -1.9733645621
 O        -1.7654555839        1.8605242905       -2.4335566624
 C        -3.0982314696        1.6442646396       -0.4299948771
 C        -3.4888824026        0.2415127705       -0.0500514822
 O        -4.6056095337        0.0230873848        0.4540050424
 C        -2.5828683695       -1.0021302788       -0.3530968789
 C        -3.0949823956       -2.4064130530        0.2622864941
 C        -3.9058901671       -3.1040911690       -0.7670382590
 O        -3.4663143282       -3.4470436478       -1.8528826781
 C        -5.4379515892       -3.4063786851       -0.3093233341
 C        -6.3054389078       -2.4268269410       -1.2580298426
 O        -6.2957151602       -2.6229987087       -2.5040730969
 C        -7.2701167451       -1.4094447714       -0.5718060981
 C        -8.7338514362       -1.9004682184       -0.7887582127
 C        -9.7564051238       -0.7436792568       -0.8084631486
 O        -9.4282101087        0.3023386724       -1.1869703535
 C       -11.3351825338       -1.0724172008       -0.5013671820
 C       -11.9644455634       -1.4980175239       -1.8954472336
 O       -12.4690339789       -2.5946552912       -2.0322725194
 C       -12.0736724127       -0.3991219190       -3.0145404984
 C       -11.6097146903       -2.2123113581        0.5074364954
 C       -12.0289737919        0.1937276251       -0.0613051747
 C        -5.7852271315       -4.8136769374       -0.7014418455
 C        -5.7535047320       -3.3426764901        1.1852184678
 C        -1.9014221743        2.0937814624        0.3481730606
 C        -4.3251997133        2.5920256078       -0.0956608454
 C        -1.1075272882       -1.7728151999       -4.2870955022
 C        -1.2322710795        0.0655935655       -6.0085076943
 C         0.4074836803       -6.8016461914       -7.9163169612
 C        -1.9868753051       -6.5853456086       -8.8301231831
 C        -4.9540964791       -8.2194003663       -2.2222031320
 C        -4.6664305426       -9.1837524578       -4.6659049456
 C        -7.9697235424       -1.9078077881       -6.2131799246
 C        -9.7428309582       -3.7222768830       -6.1954933301
 C        -6.6984623301       -4.1853724386      -13.1201047379
 C        -4.7951414718       -5.8416672893      -12.3943231974
 C        -1.9576586556        0.8804870908      -15.8597404838
 C        -4.0038187894        0.2802096818      -17.1982271091
 C        -0.3612481096       -1.4325222762      -22.1791834272
 C         1.6740508160       -2.5277990844      -21.1836284240
 C         3.7524055568        3.1141814576      -25.5485537402
 C         5.1399165619        4.3682770999      -23.8520775302
 C        -1.3052930219        5.7264476518      -19.8348288845
 C        -1.9806147677        6.1709105654      -22.2871594711
 H        -1.4497901863        9.7664667212      -20.1222917186
 H        -1.5165675677        8.3852165748      -19.0312603200
 H        -2.5675010661        8.3663923001      -20.5397337100
 H         1.3446691027        7.4221643297      -22.6590975542
 H         0.5290765569        6.2687148330      -23.8403974338
 H         3.0482812251        5.7808923185      -22.3155562340
 H         3.0085174292        6.3113866086      -24.0388757344
 H         5.0398086538        1.0157279150      -23.4899022497
 H         3.5770125093        0.5971723560      -24.2725139926
 H         3.5354259719        0.5600806089      -21.2766558312
 H         3.9119717500       -0.8791986550      -22.1514392137
 H         1.6113296463       -1.5433407995      -18.5562336587
 H         0.1843260073       -2.1202940817      -19.3491656656
 H         0.1901519524        0.4523931442      -17.8589255090
 H         0.2199428790       -0.9807697395      -16.8309922458
 H        -4.8109266388       -1.4804273975      -14.9634107068
 H        -3.6127866987       -0.8187216500      -13.9369034258
 H        -2.6991256700       -3.2132462188      -13.3736971486
 H        -3.8850625445       -3.9441596957      -14.5838084425
 H        -8.0462819377       -3.6101004396      -10.7831554275
 H        -6.9139700622       -2.3592290329      -11.0129126769
 H        -7.2801648568       -1.6024983663       -8.8230407389
 H        -6.1590233556       -3.0357231176       -8.4676518616
 H        -8.2587799253       -6.1733298999       -6.5935418683
 H        -8.3741612872       -5.8349861212       -4.8913121058
 H        -5.5767569387       -6.2941212116       -6.2431489967
 H        -6.5110414142       -7.6793775995       -6.2559711739
 H        -1.9512090484       -8.5454318136       -4.3300676270
 H        -1.4803626348       -7.5366560525       -2.9537970131
 H        -0.1655665137       -7.0515847699       -5.0967358642
 H        -1.0067359284       -5.6517524664       -4.7717349140
 H        -2.7316023025       -4.1950250070       -8.0769427291
 H        -1.4693072473       -3.6687239754       -9.2607302575
 H        -2.3302217693       -1.4792521350       -8.2802205702
 H        -0.8580122350       -1.8300464410       -7.4137521577
 H        -4.4800141466        1.3624011683       -4.9305405835
 H        -2.8572089927        1.7940021675       -4.6000405119
 H        -4.6562140060        0.5880960228       -2.4187183684
 H        -4.6854777214        2.2272256154       -2.9592792868
 H        -1.5389671719       -0.7037420234       -0.1370133390
 H        -2.4409162302       -1.1348684112       -1.4188850861
 H        -3.6856410447       -2.1608493433        1.0998003988
 H        -2.1266529905       -2.8923749383        0.4915265829
 H        -7.1938603982       -0.4723475409       -1.0115050468
 H        -7.0062686616       -1.1800469108        0.4083032682
 H        -9.0157785010       -2.7661735426       -0.2533169864
 H        -8.8199723118       -2.2432453670       -1.8319633240
 H       -11.2038899704        0.2865496294       -3.1451255676
 H       -12.8979692800        0.2693028680       -2.6969237115
 H       -12.4298347331       -0.8624309677       -3.9215746696
 H       -11.5461267390       -3.1452700321        0.0100950898
 H       -12.5417805315       -2.0289918451        0.9985196790
 H       -10.8770172100       -2.2371328122        1.3819849689
 H       -11.9108940892        0.3458144167        1.0124645749
 H       -13.1023039099        0.0637693701       -0.0983144878
 H       -11.5252158408        1.0959509899       -0.4628487552
 H        -6.7947663193       -5.0552498970       -0.3292038895
 H        -5.0850557942       -5.5206168659       -0.3001734915
 H        -5.7481917039       -4.9700724246       -1.7643009828
 H        -6.5551786192       -4.0735787146        1.3505848756
 H        -6.2560588467       -2.4393105834        1.5787244125
 H        -4.9396188246       -3.4757661994        1.8708330922
 H        -1.0431305891        2.3750056912       -0.2343237432
 H        -1.4479049194        1.4179946060        0.9699130235
 H        -2.2927653697        2.9368166618        0.9720357684
 H        -4.5853416373        2.4472510111        0.9772813406
 H        -5.1726495583        2.2913711339       -0.7341756786
 H        -4.0950836744        3.6385983203       -0.2956808613
 H        -0.4344591325       -2.4826409139       -4.7299453775
 H        -1.8886887713       -2.2900514544       -3.6932863991
 H        -0.4922585272       -1.1340376396       -3.6565174781
 H        -0.2850593894       -0.3730537388       -6.4526050051
 H        -0.9817688044        1.0705627519       -5.5285805428
 H        -1.7956534525        0.4049823261       -6.9337110070
 H         0.5588541414       -7.1763243816       -8.9187693399
 H         0.7664229400       -7.4207375651       -7.0841617849
 H         1.1486846067       -6.0577002172       -7.8040431057
 H        -2.9163208079       -6.0555024072       -8.7090093223
 H        -2.2643222745       -7.6224131040       -8.9264425543
 H        -1.4940567438       -6.3092131919       -9.7449485237
 H        -4.7838279746       -7.2534272458       -1.6803490196
 H        -4.4014617032       -9.1075786308       -1.8929618323
 H        -6.0756746255       -8.3197283370       -2.0503464501
 H        -5.6262524242       -9.6810240625       -4.6930763298
 H        -3.9419487465       -9.8756569109       -4.2640303618
 H        -4.3419720403       -9.0017538134       -5.6105788490
 H        -8.5129330179       -1.2106414661       -6.8492446343
 H        -6.8855860793       -1.8337625343       -6.4282541308
 H        -8.3525958118       -1.8411359614       -5.1577052733
 H       -10.1453532003       -4.7330685498       -6.4289596340
 H       -10.3881495520       -2.8640899891       -6.4664717962
 H        -9.7422226672       -3.7382333893       -5.0756481024
 H        -7.4943637278       -4.8714190525      -12.6867836184
 H        -6.5668197103       -4.4166520076      -14.1798895864
 H        -7.0286667009       -3.1014331136      -12.9155712486
 H        -3.9576334184       -6.1395616441      -11.8851320485
 H        -4.5531899701       -5.9608842943      -13.4872099916
 H        -5.5777114998       -6.5761682298      -12.2099878858
 H        -0.8178736152        0.7908698565      -15.8153669773
 H        -2.1946304256        0.8018501545      -14.8412053268
 H        -2.3995827434        1.7913313592      -16.1985298411
 H        -4.4947722059       -0.6001295841      -17.4747018593
 H        -3.9289319782        0.9478604241      -18.0884151639
 H        -4.5222412977        0.6552212463      -16.2901751935
 H        -0.1649244462       -2.2679115223      -22.9047963086
 H        -0.8742011379       -0.6709490913      -22.6836284309
 H        -0.9644386246       -1.7467906893      -21.3553826004
 H         1.5942503757       -3.0056971286      -22.1727842941
 H         1.2042051713       -3.1623624137      -20.4963945197
 H         2.7412194380       -2.4047083663      -20.8877536388
 H         3.0971158493        2.3379777629      -25.7011868439
 H         4.6516599619        2.6678618397      -25.7399694928
 H         3.4587133958        3.8795720620      -26.2074648790
 H         5.5299556368        4.8799134558      -24.7575928552
 H         5.6616806357        3.4948328047      -23.5729769827
 H         5.0423419641        4.9742148037      -22.9582155234
 H        -2.3197171136        6.0820118901      -19.6413019646
 H        -0.6868580656        6.0384053713      -19.0276229443
 H        -1.3341365542        4.6751563577      -20.0456454261
 H        -1.6845238750        6.7024795808      -23.1572897387
 H        -2.9065888804        6.5574085392      -22.0017648634
 H        -2.0704116340        5.0755307901      -22.3458704925
 Na       -4.6726832000       -3.6300800821       -3.9032300754
 Na        0.9798409411        2.3872393072      -21.7101286086
