232

 C        -1.6333458384        8.7809686259      -20.1152671620
 C        -0.5071640680        7.9199927112      -20.7736867160
 O         0.4893184874        8.4853725449      -21.0990813606
 C        -0.8512102307        6.3804456336      -21.1178297200
 C         0.4107712325        5.7299400015      -21.7034644024
 O         0.8016075687        4.5849763795      -21.3604145376
 C         1.0712034806        6.3813427370      -22.8675172326
 C         2.4214234335        5.7781609780      -23.1189580726
 C         2.3956787386        4.3609810410      -23.8521811614
 O         1.3419504321        3.7801998756      -24.1097070905
 C         3.7054122811        3.4574335492      -24.1377155826
 C         3.6314753164        2.3676401837      -23.1124550156
 O         3.2832711614        2.7174728693      -21.9497494268
 C         3.9764240191        0.9280835118      -23.4145539969
 C         3.3884195910       -0.0797464742      -22.4314598846
 C         1.8095755589       -0.1486027977      -22.4866069712
 O         1.2331714438        0.5438066861      -23.2495659903
 C         1.0353910394       -1.0918845219      -21.5652975969
 C         0.7000232101       -0.3984164013      -20.1722609161
 O         0.5319133693        0.8376075024      -20.1155886571
 C         0.5100120960       -1.1256023744      -18.8757797841
 C        -0.1998536614       -0.3511765223      -17.6910457424
 C        -1.6475073578       -0.5861358450      -17.8788702913
 O        -2.1163874607       -1.0207637877      -18.9382713419
 C        -2.6808720780       -0.2931035385      -16.6433876402
 C        -2.7844415464       -1.5827506166      -15.8369366546
 O        -2.0317522573       -2.4981844096      -16.1495423724
 C        -3.7816163384       -1.7292541800      -14.7080430601
 C        -3.6227864410       -3.1317818128      -14.0121425405
 C        -4.3375894822       -3.2673634284      -12.5422255170
 O        -4.1271648833       -2.3583255695      -11.7242396689
 C        -5.5132167574       -4.3894434423      -12.2134505318
 C        -5.7986234807       -4.2256324436      -10.7216945905
 O        -5.3933820575       -4.9947933591       -9.8855696365
 C        -6.8152617037       -3.1735034931      -10.3189023945
 C        -7.0025240514       -2.8289458183       -8.8083065772
 C        -8.3355337074       -3.4104806054       -8.1655993137
 O        -9.3168683997       -3.6584038266       -8.7351078346
 C        -8.3540979774       -3.3924125310       -6.5621187982
 C        -7.2801192023       -4.3963313829       -6.0271115322
 O        -6.1946591080       -3.9984764340       -5.7290818943
 C        -7.5778124154       -5.9245182388       -5.9646986062
 C        -6.3567712269       -6.7656374934       -5.6672331636
 C        -5.9673079693       -6.8900421907       -4.2518608012
 O        -6.2711514348       -6.1618975257       -3.2965839183
 C        -4.7103013213       -7.8564526368       -3.8553048692
 C        -3.3115802528       -6.9182826250       -3.9694511327
 O        -3.4452066966       -5.7413978836       -3.8793229129
 C        -1.8004373454       -7.4875375058       -3.9771242833
 C        -0.9701857312       -6.8499469145       -5.0770027172
 C        -1.7493484591       -6.8219706365       -6.4067044857
 O        -2.9124065405       -7.0984023679       -6.5201745754
 C        -0.9550830948       -6.1344505470       -7.6445126328
 C        -0.8987553619       -4.6158271555       -7.4128682397
 O        -0.0663616827       -4.0805818581       -6.6660500000
 C        -1.8405497970       -3.6335875511       -8.0936108913
 C        -1.8815386208       -2.1955769430       -7.6880272625
 C        -2.5819180357       -2.0466710402       -6.1786462583
 O        -3.5043410634       -2.7992544066       -5.9352247230
 C        -2.0896639873       -1.0110184978       -5.2251953092
 C        -3.2730231541       -0.4815904218       -4.3145060694
 O        -3.9690648619       -1.2618144250       -3.7402765968
 C        -3.6496520242        0.9645274248       -4.3469877467
 C        -4.0387245535        1.4527157659       -2.9166019101
 C        -2.8208846111        1.7499472938       -1.9858298933
 O        -1.7144864125        1.7881114040       -2.4249928775
 C        -3.0992526529        1.7396046309       -0.4414134705
 C        -3.5215473395        0.1880827348       -0.0176899210
 O        -4.5550244597       -0.0220446008        0.5926620006
 C        -2.5773478808       -0.9861294692       -0.4351859929
 C        -2.9754970073       -2.2438707691        0.2162846949
 C        -4.0294605927       -3.0803211703       -0.6429813650
 O        -3.6872931546       -3.4340783475       -1.7158943092
 C        -5.5487873174       -3.4308007041       -0.2809539909
 C        -6.3426974351       -2.4385715683       -1.2464599742
 O        -6.3044900335       -2.5021339103       -2.4620291892
 C        -7.3663462395       -1.4806037450       -0.7535411365
 C        -8.7625958469       -2.0343814015       -0.8764085428
 C        -9.8179000015       -0.8519743011       -0.9711501900
 O        -9.4543285929        0.2845675999       -1.1965626845
 C       -11.2522102787       -1.1109877355       -0.5781552501
 C       -12.0247740837       -1.5092753789       -1.8905516824
 O       -12.4469014783       -2.6586600494       -2.0627938434
 C       -12.0385511687       -0.4512008143       -2.9591623630
 C       -11.3902493906       -2.1992425407        0.5219039121
 C       -11.8841314085        0.2480469278       -0.0570170938
 C        -5.9264787475       -4.8120057880       -0.7653121945
 C        -5.6970616831       -3.1736160648        1.2102473641
 C        -1.8102984782        2.0986631801        0.4234222591
 C        -4.3315141377        2.6755744053       -0.0479365113
 C        -1.1108233438       -1.7193270394       -4.1840566347
 C        -1.2753685964        0.1297873128       -5.9107580934
 C         0.4239805753       -6.6873142086       -7.9398030494
 C        -1.8892230799       -6.5485071936       -8.8574468196
 C        -4.8899205344       -8.2336051923       -2.3202239118
 C        -4.6233340517       -9.0791927400       -4.6632479566
 C        -7.9648077866       -1.9346905475       -6.1329094791
 C        -9.7059545261       -3.8061161639       -6.0171298435
 C        -6.7060054034       -4.1862224141      -13.1145587300
 C        -4.9475551887       -5.7998933173      -12.3518363751
 C        -2.1606532280        0.8546931385      -15.6830255734
 C        -4.1179859545        0.1676028189      -17.2088965021
 C        -0.3858094077       -1.4099167190      -22.2377450282
 C         1.7878211380       -2.4049754794      -21.2371207102
 C         3.6527502425        3.0248566684      -25.6563740542
 C         5.0043509623        4.2800781859      -23.8279075275
 C        -1.2442680115        5.7227140450      -19.7328415640
 C        -1.9391390517        6.3283474592      -22.2083986419
 H        -1.3145555935        9.8241844954      -20.0347994072
 H        -1.6783163195        8.4856588349      -19.0518066895
 H        -2.6461637780        8.6854633479      -20.5964425765
 H         1.3464307238        7.4005344645      -22.6225391411
 H         0.4005483281        6.2231127541      -23.7746218832
 H         2.7495071710        5.5319869080      -22.0886776536
 H         3.0798260562        6.4575263261      -23.6621355762
 H         5.0118269036        0.7196808342      -23.5304447245
 H         3.5634034287        0.7160845940      -24.5068246413
 H         3.7196240261        0.2990104619      -21.4880265846
 H         3.8170963584       -1.0821321735      -22.5235289979
 H         1.4155267663       -1.4392122000      -18.5218707554
 H         0.0070353112       -2.0696782775      -19.1451093467
 H         0.1121095969        0.6834406129      -17.7531260629
 H         0.1456801000       -0.7636078189      -16.7781846292
 H        -4.7364457896       -1.6782925790      -15.2170480691
 H        -3.8647051092       -0.8255486890      -14.0396404607
 H        -2.5384119101       -3.3503406934      -13.7144286533
 H        -4.0172258105       -3.8814407875      -14.6331244696
 H        -7.7546800839       -3.6457932790      -10.7677813829
 H        -6.8070202127       -2.1908073688      -10.9257264107
 H        -7.2867344493       -1.7509935450       -8.7512859874
 H        -5.9834128620       -2.8593050753       -8.2279867549
 H        -8.0246988679       -6.2471870681       -6.8615568473
 H        -8.2989085782       -5.9746444011       -5.1874739465
 H        -5.4278076204       -6.4778579491       -6.1220904546
 H        -6.5126590166       -7.7607048871       -6.1670611389
 H        -1.7784622071       -8.5721588463       -4.1223236026
 H        -1.4087591093       -7.3619321991       -2.9603440524
 H         0.0714470441       -7.1930692208       -5.0656993995
 H        -0.8367128997       -5.8419011041       -4.9206663627
 H        -2.8127830298       -4.0997936187       -8.2157615512
 H        -1.4060745559       -3.5537710977       -9.1229486392
 H        -2.4015624310       -1.6240012293       -8.3825949265
 H        -0.9082999094       -1.7240629005       -7.5503525677
 H        -4.4918452257        1.1068686792       -4.9376693652
 H        -2.8529614661        1.6477338734       -4.6901259830
 H        -4.6338879827        0.7477367148       -2.4113793694
 H        -4.6080057577        2.3957446065       -3.0562113907
 H        -1.5501845900       -0.6826668854       -0.3884197372
 H        -2.6179043914       -1.1452173101       -1.5511616149
 H        -3.3659505808       -1.9617864570        1.2117387581
 H        -2.0316962880       -2.7372797627        0.2702475008
 H        -7.2624634673       -0.5036829416       -1.2031627745
 H        -7.1749069805       -1.2228337659        0.3093402535
 H        -8.9665760459       -2.7222937836        0.0113270249
 H        -8.9817813911       -2.7453147405       -1.7583661258
 H       -11.1921723189        0.2448940833       -2.7604877925
 H       -12.9489642028        0.2215617126       -2.7586281565
 H       -12.1446819191       -0.8044078299       -3.9422251612
 H       -11.4484494391       -3.1574794709        0.1004372473
 H       -12.3418948911       -1.8091183861        0.9436520279
 H       -10.7355779585       -2.2505194293        1.3710688344
 H       -11.8430380474        0.3825499368        0.9946038085
 H       -12.9202304621        0.2864474811       -0.1954549010
 H       -11.2413530441        1.0717941065       -0.4813711239
 H        -6.8371664046       -5.1832040469       -0.3303775979
 H        -5.1475566117       -5.4803591811       -0.4378840945
 H        -5.8264421562       -4.9136517233       -1.8699935779
 H        -6.7324862358       -3.5999147172        1.4293662158
 H        -5.7236915243       -2.2386819030        1.6692815740
 H        -4.8930212775       -3.7895019878        1.7687426451
 H        -0.9339467257        2.2524830705       -0.1860491984
 H        -1.3936565344        1.2933666860        0.9868999603
 H        -2.0191553733        2.8977749210        1.1197920986
 H        -4.6142429678        2.5033901909        1.0052793887
 H        -5.2539959960        2.5420701934       -0.7407007572
 H        -3.9514323108        3.7095892903       -0.1074166647
 H        -0.2096547201       -2.3577880405       -4.6434003044
 H        -1.7210826616       -2.3462111953       -3.5186397728
 H        -0.6549054943       -0.8828670385       -3.6145103912
 H        -0.2457133007       -0.2275668349       -6.0353483753
 H        -1.2141295249        1.0697102475       -5.2940952389
 H        -1.5468093483        0.5181215308       -6.8994386817
 H         0.6312834931       -6.7986548914       -8.9954144418
 H         0.6133609736       -7.5504462088       -7.3177155175
 H         1.2510333180       -6.1087973237       -7.5310714253
 H        -2.8464171306       -5.9869663466       -8.8299929751
 H        -2.1968963823       -7.5996046109       -8.8254151517
 H        -1.3693755617       -6.3845978396       -9.8158075535
 H        -5.2298175943       -7.3154413868       -1.9237061880
 H        -4.0414470562       -8.7294636080       -1.8234496228
 H        -5.8163160102       -8.8379511695       -2.2480597490
 H        -5.5967378286       -9.4730409940       -4.7719911878
 H        -4.0873708034       -9.8917708485       -4.2022650334
 H        -4.1682965538       -8.9055720713       -5.6327668503
 H        -8.6670465026       -1.2767057270       -6.6036439878
 H        -6.9376533521       -1.7851913999       -6.5201060493
 H        -8.2047147566       -1.8705783931       -5.0886482685
 H       -10.0121558730       -4.7518176217       -6.4372344093
 H       -10.3934697377       -2.9438238930       -6.3176585413
 H        -9.8141437254       -3.9279467283       -4.9252804125
 H        -7.3788585108       -5.0828762415      -12.8321726425
 H        -6.4127935295       -4.2866729993      -14.2378667421
 H        -7.1847881449       -3.2522298672      -12.9110960439
 H        -4.1502014522       -5.9870520616      -11.6422998300
 H        -4.5414638927       -6.0350949652      -13.3974787026
 H        -5.6653710211       -6.5433959976      -12.1571372651
 H        -1.1920297498        0.6626535302      -15.1861583179
 H        -2.8693954737        0.9597963668      -14.8417725465
 H        -2.3691848004        1.8413160405      -16.1732326482
 H        -4.6587952854       -0.5820020665      -17.7929702142
 H        -3.8944052788        1.0487984165      -17.8850372673
 H        -4.6579545130        0.4352903744      -16.3002148930
 H        -0.1397387907       -2.0615983757      -23.0848880504
 H        -0.8861902908       -0.5496939649      -22.6473268989
 H        -1.1072959593       -1.8579554976      -21.4401425415
 H         1.8052145822       -3.0442262722      -22.1446913217
 H         1.1325679801       -2.9660456431      -20.5432235952
 H         2.7480142410       -2.3068651060      -20.7207684042
 H         2.8112721267        2.4073168206      -25.8653189961
 H         4.4145640477        2.3355378919      -25.8500355911
 H         3.5609232641        3.8477521222      -26.3482047228
 H         5.2517552292        4.7081731401      -24.8100053624
 H         5.6859987469        3.5826147407      -23.3656646532
 H         4.7593363791        5.0505427985      -23.1367766131
 H        -2.2696046695        6.1215253297      -19.4323014792
 H        -0.5340109155        6.1383354619      -19.0601594564
 H        -1.2622571398        4.6675623179      -19.8067569186
 H        -1.5964577967        6.7601904765      -23.0694426971
 H        -2.7438742408        6.9407249457      -21.7804355274
 H        -2.3051761921        5.3310684450      -22.2277634077
 Na       -4.7319992597       -3.7102264264       -3.8820164348
 Na        0.9991041491        2.3905655674      -21.6808237075
