232

 C        -1.6568976645        8.8853761487      -20.0357812554
 C        -0.5144267112        8.1112284118      -20.6291933453
 O         0.5458190876        8.6572878691      -20.9432020295
 C        -0.7952471042        6.5496495644      -20.9468354768
 C         0.2768722407        5.7368109451      -21.6779191324
 O         0.2949987057        4.5590949726      -21.3813444552
 C         1.1323362426        6.3609905149      -22.7946165761
 C         2.5234191218        5.5905091317      -23.1209836328
 C         2.3403139134        4.2715818359      -23.9613861952
 O         1.2622296283        4.0331847861      -24.4716431602
 C         3.5751587201        3.3530984405      -24.2009046252
 C         3.5467158870        2.1702574272      -23.1478572206
 O         3.3341491087        2.3523796159      -21.9723539733
 C         3.8918867119        0.7771442093      -23.5979412346
 C         3.2578135455       -0.3710515925      -22.7188236560
 C         1.7999868815       -0.0962408956      -22.4164646719
 O         1.1073897983        0.7408416767      -23.0819777955
 C         1.0171181964       -1.0247083673      -21.4252222639
 C         0.6818969360       -0.2912826996      -20.0899087158
 O         0.2838295010        0.8309355766      -20.1656695801
 C         0.5851432421       -1.0106688504      -18.7018169790
 C        -0.2697485192       -0.2313488711      -17.6546295367
 C        -1.8169093660       -0.5225230141      -17.7537093120
 O        -2.2307350933       -0.8843232000      -18.8192007783
 C        -2.8248491274       -0.3302084221      -16.5744434048
 C        -2.6791924247       -1.6949087630      -15.7522826185
 O        -1.7036382890       -2.3711943615      -15.8337121493
 C        -3.8247472279       -1.9814667274      -14.7305946401
 C        -3.7868822555       -3.3288193029      -14.0222749163
 C        -4.3721329197       -3.3107695991      -12.5985785825
 O        -3.9464202820       -2.4482391900      -11.9029172954
 C        -5.4915212682       -4.3917503377      -12.2271572465
 C        -5.8829748791       -4.1170251126      -10.7176240098
 O        -5.3010092500       -4.8757583714       -9.9139168545
 C        -6.7020204221       -3.0266193569      -10.1352409120
 C        -6.7637754461       -3.1540481449       -8.5869354551
 C        -8.1895258719       -3.4094765759       -8.0372984826
 O        -9.1937046935       -3.5878001953       -8.7633717878
 C        -8.2813415261       -3.4182000434       -6.4690892309
 C        -7.1241991846       -4.4361881009       -6.0672483748
 O        -6.0339556015       -3.9830823121       -5.7759331281
 C        -7.3694841020       -5.9447796082       -6.2177660055
 C        -6.2287104657       -6.9141155733       -5.8995707316
 C        -5.7952653134       -6.9152768065       -4.3196833281
 O        -6.3575538621       -6.0936178882       -3.6167922756
 C        -4.6025801923       -7.7729018130       -3.9338157499
 C        -3.2500973741       -6.8298954931       -4.0916270350
 O        -3.2981890265       -5.6099125149       -4.0122877662
 C        -1.9359271610       -7.6506148274       -4.1376940666
 C        -0.9703490071       -7.0024703230       -5.1832536318
 C        -1.6890728467       -6.7480912951       -6.4829511063
 O        -2.8568141817       -7.0955363657       -6.6257873381
 C        -0.9350619228       -6.0118984063       -7.7650420677
 C        -1.1018308448       -4.4622060270       -7.4811832133
 O        -0.2737388018       -3.9759306378       -6.7555182655
 C        -2.1577936204       -3.6130165864       -8.1051564081
 C        -1.9814187915       -2.1779237827       -7.4930140434
 C        -2.5744241129       -2.0769032258       -6.1454577691
 O        -3.3947303257       -2.8950441453       -5.8099558772
 C        -2.0008344258       -1.0190425272       -5.0939133388
 C        -3.3189618756       -0.5296607486       -4.2716613045
 O        -4.0974790037       -1.3013431188       -3.7252497095
 C        -3.7227612860        0.9530329665       -4.2188051383
 C        -4.0546068306        1.6037623868       -2.8965232637
 C        -2.8444023551        1.6495649085       -1.9354734324
 O        -1.6850662246        1.6651793290       -2.3506789957
 C        -3.0799381128        1.6995421230       -0.4165270839
 C        -3.5394920807        0.2433673487        0.0398277064
 O        -4.5322496728        0.0923986758        0.7560176452
 C        -2.6905187984       -0.9060111428       -0.5977691107
 C        -3.0266912450       -2.3001576666        0.1314264150
 C        -3.9771997055       -3.0388924733       -0.7243494115
 O        -3.6710529328       -3.5362298874       -1.8224215676
 C        -5.4522754226       -3.2470499267       -0.1988571048
 C        -6.2779255088       -2.3819935947       -1.2363053788
 O        -6.2066394682       -2.5558132037       -2.4434540687
 C        -7.4167437068       -1.4674783904       -0.7223658241
 C        -8.8099485753       -2.0771357063       -0.9943513679
 C        -9.8022602827       -0.9058237159       -0.9940818603
 O        -9.5120768379        0.1677289354       -1.4610479941
 C       -11.2538154408       -1.0624382863       -0.4950057830
 C       -11.9539203576       -1.5540648516       -1.8695713897
 O       -12.3084804936       -2.6856134386       -2.0196351165
 C       -12.1828365742       -0.4623814690       -3.0286701174
 C       -11.4843012888       -2.1819630652        0.5592594130
 C       -11.8348247828        0.2676384692        0.0314923728
 C        -5.8604698875       -4.6583391792       -0.3722547738
 C        -5.9312991418       -2.8740503237        1.2496638124
 C        -1.7641741567        1.9895268674        0.3491106445
 C        -4.1941448746        2.7201133449       -0.0347599414
 C        -1.1345285922       -1.7600737962       -4.0967353598
 C        -1.2757237380        0.1045074056       -5.7370571142
 C         0.5447429300       -6.5046383470       -7.7540879729
 C        -1.6468419686       -6.3500572943       -9.0872552431
 C        -4.5918498789       -8.2835962060       -2.4132254726
 C        -4.4270803148       -8.9636818581       -4.9304826834
 C        -7.9865185149       -2.0737306467       -5.6544448750
 C        -9.6601927531       -3.9007981162       -5.9938228195
 C        -6.7077238157       -4.0626240989      -13.2490134365
 C        -4.7973434171       -5.7413287223      -12.5546809113
 C        -2.4636262857        0.7904494771      -15.5778202998
 C        -4.2297414424       -0.0961714703      -17.2638177682
 C        -0.3348202392       -1.4773426358      -22.0836735063
 C         1.8662448846       -2.3753055059      -21.2355083396
 C         3.5182113324        2.8688472942      -25.6311216723
 C         4.8840807238        4.1056428922      -24.0637692231
 C        -1.1674461491        5.7341984906      -19.6744949771
 C        -2.1207418807        6.4924749485      -21.9372600280
 H        -1.4358611210        9.8994261322      -19.7218052288
 H        -2.1429786996        8.4263545638      -19.2136403881
 H        -2.3165464205        8.8196084261      -20.8628465517
 H         1.4236317400        7.4097158820      -22.5478479113
 H         0.5662317860        6.2394547446      -23.6727296787
 H         3.0605914881        5.3258628541      -22.2092240096
 H         3.1323361961        6.1846316972      -23.8414912465
 H         5.0059166158        0.6426876283      -23.3872435143
 H         3.8338371603        0.6152881631      -24.5813413424
 H         3.9105699671       -0.5420343805      -21.7734941895
 H         3.2222598350       -1.3289469312      -23.2925878024
 H         1.6351222602       -1.3269753761      -18.3268320726
 H         0.1124044356       -1.9777534165      -18.7747491993
 H        -0.0659880840        0.8571528549      -17.6719324119
 H         0.1093591754       -0.6335748555      -16.6610581784
 H        -4.7660358532       -1.8956550202      -15.2988853767
 H        -3.8270961480       -1.1687156160      -14.0500540794
 H        -2.7908184127       -3.6681778834      -14.0382763882
 H        -4.3889713088       -4.0974424148      -14.5744293428
 H        -7.6620307294       -2.9997316880      -10.6318035712
 H        -6.2826895087       -2.1067044454      -10.4415686309
 H        -6.3474053893       -2.2988425983       -8.1077609284
 H        -6.1477483504       -3.9349377752       -8.3228690039
 H        -7.6941792887       -5.9732760806       -7.3087973636
 H        -8.2994039045       -6.0904909525       -5.5941353787
 H        -5.3167391287       -6.6769236594       -6.5269089542
 H        -6.5743545623       -7.8670768475       -6.2808585201
 H        -2.0658240356       -8.7181932929       -4.3727557438
 H        -1.5277988027       -7.7376494224       -3.1283395447
 H        -0.1585010172       -7.7437946861       -5.3564384140
 H        -0.3061352298       -6.1122017743       -4.7803281336
 H        -3.1086915409       -4.0735124104       -7.7755735025
 H        -2.1576471501       -3.5597126567       -9.1690269015
 H        -2.6953878103       -1.4310436187       -8.0280123417
 H        -1.0789163999       -1.6317790256       -7.3969241446
 H        -4.7292793096        0.9581663054       -4.7880326076
 H        -2.9871835740        1.5760655653       -4.7247173594
 H        -4.9350497008        1.0070391817       -2.4438039007
 H        -4.2958081761        2.6741732378       -2.9735812975
 H        -1.6066067330       -0.5871311878       -0.5883704451
 H        -2.8982403341       -0.8592720255       -1.6662414701
 H        -3.4893858931       -1.9998646341        1.0533691487
 H        -2.0507040186       -2.8358660253        0.3537693820
 H        -7.4122530395       -0.5495979065       -1.4273231562
 H        -7.2595631329       -0.9432184070        0.2357937932
 H        -9.1460664259       -2.7612792761       -0.2519503444
 H        -8.7834695554       -2.6381963805       -1.9200115811
 H       -11.5263136704        0.3784132401       -2.9183647401
 H       -13.1418590818       -0.0643889638       -3.1215859192
 H       -12.0282634936       -1.0384746778       -3.9628887538
 H       -10.9873008507       -3.0352741971        0.0757053240
 H       -12.4889850470       -2.3421084209        0.8487778853
 H       -10.9055711339       -1.9996583145        1.4891038280
 H       -11.5513544052        0.5915149542        1.0416761399
 H       -12.9048016087        0.0034018873        0.1797099621
 H       -11.7345095800        1.0410452850       -0.6953430551
 H        -6.9503075317       -4.6888968428       -0.1451832320
 H        -5.4875813849       -5.4334593477        0.3448764895
 H        -5.5507301772       -5.0279235249       -1.3312939062
 H        -6.9073732784       -2.4863492379        1.4501331034
 H        -5.2327103750       -2.1769234927        1.8011106541
 H        -5.7827692884       -3.7579133069        1.7715963104
 H        -0.8959076564        2.0239441685       -0.3199428948
 H        -1.3712583311        1.2269184949        1.0361336578
 H        -1.9362454562        2.8941366519        0.9915682732
 H        -4.4550738129        2.6702293927        1.0368456034
 H        -5.0828683993        2.4528338718       -0.5355369573
 H        -3.8045374884        3.7230083306       -0.2009999087
 H        -0.2892635057       -2.0354899678       -4.6249253073
 H        -1.5954658203       -2.7059776920       -3.7424826281
 H        -0.8470506776       -1.0805486287       -3.2718860032
 H        -0.5937727253       -0.1496641511       -6.4876453398
 H        -0.6822235407        0.5975118551       -5.0360377259
 H        -1.9178888267        0.8472084785       -6.0795504053
 H         1.1473534259       -5.7294562896       -8.2315018095
 H         0.7956904242       -7.4720289079       -8.2069989721
 H         0.9534648568       -6.6718381261       -6.7718294930
 H        -2.7359095887       -6.3727314095       -9.0221332341
 H        -1.3441112948       -7.3552699866       -9.4344822862
 H        -1.3295450888       -5.6107667463       -9.8494793449
 H        -5.3050914809       -7.7822659047       -1.7517585547
 H        -3.5963051999       -8.2176402797       -2.0863989208
 H        -4.8428567618       -9.3152110923       -2.5248491862
 H        -5.3431229268       -9.6452862531       -4.8052129277
 H        -3.7047007262       -9.7488317786       -4.5760908940
 H        -4.2267465008       -8.6910343624       -5.9660121278
 H        -8.8414295417       -1.4190461557       -5.7726062508
 H        -7.0820551693       -1.7120987276       -6.0895081482
 H        -8.0301281171       -2.1931043139       -4.5740901688
 H        -9.9625768897       -4.8484374169       -6.4609682064
 H       -10.3615974963       -3.1660062243       -6.2051390214
 H        -9.6924727652       -4.0036355361       -4.9270930458
 H        -7.5370500671       -4.6845958197      -13.1842551370
 H        -6.2831864683       -4.0958336607      -14.1709445172
 H        -7.0121629026       -2.9903498949      -13.1590611200
 H        -3.9109363264       -5.9885869763      -12.0036113839
 H        -4.6485534414       -5.7909567927      -13.6331012991
 H        -5.4854951348       -6.6542110655      -12.4374809087
 H        -2.0261563480        0.4696814789      -14.6056765891
 H        -3.2763992545        1.4591785120      -15.4000046706
 H        -1.8298576965        1.4952856749      -16.0792543812
 H        -4.1206270282       -0.6094661589      -18.2213502252
 H        -4.2110823077        0.9939815087      -17.4951380123
 H        -5.0936244646       -0.4288082853      -16.5910149435
 H        -0.1795282249       -1.7290671039      -23.1610764278
 H        -1.0236802419       -0.6263156390      -22.0520940979
 H        -0.7993950896       -2.2062178174      -21.4829581113
 H         2.3461671067       -2.7285524531      -22.1471124495
 H         1.3141223134       -3.2010279891      -20.8455166859
 H         2.5930366307       -2.1560974529      -20.4358160573
 H         2.5208570169        2.5545893710      -26.0934254965
 H         4.2139582938        2.0286635974      -25.9613560298
 H         3.7439926103        3.8265714919      -26.2143591517
 H         4.7330298928        5.0517675373      -24.5454011071
 H         5.6568642201        3.4480224061      -24.4048784435
 H         4.9532485108        4.2141962247      -22.9779048773
 H        -1.9924545748        6.2451034550      -19.2570817703
 H        -0.2594537635        5.7899655942      -19.0355410025
 H        -1.5108870148        4.7022920182      -19.9476206541
 H        -1.8401592511        7.2327640345      -22.7373336114
 H        -2.9370638484        6.8434751075      -21.3143579785
 H        -2.3758566717        5.4345743675      -22.2540582276
 Na       -4.7582083697       -3.8121085705       -3.8302411340
 Na        1.0073915007        2.4889611370      -21.8560299879
