232

 C        -1.0284945207        9.4481171718      -20.3330206887
 C        -0.2151504563        8.1936367082      -20.6606957884
 O         1.0088732162        8.1796019563      -20.6678444462
 C        -0.9288215846        6.8394662812      -20.7202570861
 C        -0.0520872624        5.6135053861      -21.3278573589
 O        -0.3398827152        4.4595607043      -21.1437377008
 C         1.0171380889        6.1207186390      -22.2986970510
 C         2.2160347361        5.1307392260      -22.6441050037
 C         1.9798800751        4.0981913399      -23.7868999257
 O         0.8973269491        3.8425470821      -24.1545555910
 C         3.1734315028        3.3015367645      -24.3792786580
 C         3.1101149485        2.0473102531      -23.3738138204
 O         2.9771832696        2.2315350051      -22.1677595010
 C         3.2150298773        0.6980276030      -23.9435398285
 C         2.8734650958       -0.4388060856      -23.0104597822
 C         1.3746448383       -0.3322627876      -22.5059771829
 O         0.6137828024        0.3860734697      -23.0194955961
 C         0.9708075669       -1.1731448293      -21.1997591825
 C         0.6561530059       -0.1359348885      -19.9598465583
 O         0.6843864104        1.0715878565      -20.1745502367
 C         0.5835981809       -0.7623232395      -18.5313984023
 C        -0.4403826268       -0.0746353540      -17.5764417488
 C        -1.8414681766       -0.4596550783      -17.8468838262
 O        -2.0801657502       -0.9133517670      -18.9173479155
 C        -3.0200500954       -0.2977093820      -16.7344942640
 C        -2.7025659153       -1.5220386358      -15.7450965091
 O        -1.5857826723       -1.9526313824      -15.5682239925
 C        -3.9349934561       -2.1093915736      -14.9511303920
 C        -3.4665415165       -3.3885033044      -14.0526047408
 C        -4.1793356993       -3.3264106320      -12.6930714640
 O        -4.0171141570       -2.4017523846      -11.9529639582
 C        -5.5001653004       -4.3070461302      -12.1685324928
 C        -5.4518248545       -4.2221185478      -10.6792011046
 O        -4.6796350967       -4.9494245034      -10.0546507621
 C        -6.2305207425       -3.0092348891       -9.9885481132
 C        -6.3397567711       -3.0520857031       -8.5166256032
 C        -7.8581805726       -3.2402134098       -8.0705599605
 O        -8.8219623363       -3.0011459954       -8.8199034560
 C        -8.1062133821       -3.5387995986       -6.6026119643
 C        -6.9501195779       -4.5616425064       -6.1427471332
 O        -5.8668270729       -4.1594845127       -5.7290591285
 C        -7.1311145982       -6.0334119432       -6.4447309229
 C        -5.9663017417       -7.0397909809       -6.0590329124
 C        -5.3329835443       -6.9100608060       -4.6723574216
 O        -5.7972919299       -6.1517532123       -3.8220072673
 C        -4.2250366981       -7.8649805988       -4.1792968278
 C        -2.8275963551       -7.0745300678       -4.3834495823
 O        -2.7431406498       -5.9226460568       -4.0202924859
 C        -1.5338255048       -7.7984493510       -4.8350277252
 C        -0.8229400914       -6.7963302330       -5.6998444704
 C        -1.4241627381       -6.4758448880       -7.1396005553
 O        -2.5315636205       -6.9683929872       -7.3382462068
 C        -0.7372515867       -5.5081346015       -8.0730066707
 C        -1.1049696302       -4.1085107801       -7.4411734102
 O        -0.4933054500       -3.7489867178       -6.4845804548
 C        -2.3028117027       -3.4073989000       -8.0655499504
 C        -2.6324242805       -2.1537133255       -7.2788919243
 C        -2.8341792654       -2.2623236528       -5.7709238937
 O        -3.3081306653       -3.3070275843       -5.3745818811
 C        -2.1750091019       -1.2484660747       -4.7750635487
 C        -3.4453947794       -0.6422403423       -4.1405928173
 O        -4.1418543275       -1.3888167762       -3.4764107393
 C        -3.8266605761        0.8767458076       -4.2902847677
 C        -4.0631577713        1.6820975821       -2.9461099273
 C        -2.7960431227        1.5303022175       -2.0680833383
 O        -1.6914239641        1.1381241294       -2.5361609719
 C        -2.9184834763        1.6824333471       -0.5393022172
 C        -3.3633032762        0.2339239854        0.0394633428
 O        -4.4160234139        0.1764502621        0.5883602408
 C        -2.5351113514       -1.0441537248       -0.1618774894
 C        -3.2298406189       -2.2185013213        0.5596939804
 C        -4.0242916812       -3.0449814500       -0.3734149364
 O        -3.5549410597       -3.6507222586       -1.3360548602
 C        -5.6153287845       -3.2207590476       -0.0764407932
 C        -6.4056461252       -2.5075646793       -1.3826327820
 O        -6.4382809469       -3.0491294975       -2.4737943049
 C        -7.2904918086       -1.2904946054       -1.0176633947
 C        -8.6803262382       -1.5667923428       -0.4236658407
 C        -9.8041749607       -0.7257666370       -1.0387020784
 O        -9.5974763524        0.2625255447       -1.7687506370
 C       -11.3504866439       -1.0702671101       -0.6565355033
 C       -12.0821730814       -1.6545488500       -1.9555081113
 O       -11.8518107555       -2.7986197898       -2.0840014204
 C       -13.0030568044       -0.7460665486       -2.8209566707
 C       -11.5012450477       -2.1367608142        0.4267418099
 C       -11.9892141967        0.2381613007       -0.1543790627
 C        -5.9456591309       -4.6326904033       -0.0775699066
 C        -6.0875020963       -2.5849224092        1.2540084210
 C        -1.5382743952        2.1698685068        0.1368579254
 C        -4.0867633618        2.6191997766       -0.0845331749
 C        -1.2803429610       -1.9267848763       -3.7465741893
 C        -1.3486853157       -0.0779588855       -5.4201846216
 C         0.8206956015       -5.5473646625       -8.0975129332
 C        -1.3193047720       -5.7524109265       -9.4916384513
 C        -4.2706174402       -8.0383508516       -2.5628518368
 C        -4.2601486596       -9.2891753231       -4.9332147936
 C        -7.9038718290       -2.2571787476       -5.7570693779
 C        -9.5619831576       -4.1468910299       -6.4260859461
 C        -6.7408636883       -3.7884708232      -12.8968385648
 C        -5.3031378616       -5.8488233060      -12.5520131702
 C        -2.8947250476        0.9745271754      -15.8496567507
 C        -4.3672342818       -0.4340981112      -17.4449887706
 C        -0.4858561116       -1.7785599149      -21.4829155172
 C         1.9547625189       -2.2674397600      -20.7777715038
 C         2.7990756847        2.9720099736      -25.9103371516
 C         4.5268289577        3.8825505064      -24.2148168626
 C        -1.4546257563        6.5040940180      -19.3755519842
 C        -2.0382631454        6.9001453957      -21.9025332771
 H        -0.7246863381        9.5902916370      -19.3295259680
 H        -2.1006426480        9.2823491453      -20.4094508452
 H        -0.7699837605       10.2920798050      -20.9003592401
 H         1.4977719009        6.9450061227      -21.9515829346
 H         0.3948578282        6.3105139595      -23.2298156290
 H         2.5151263072        4.5794765619      -21.7581284544
 H         3.0778456077        5.6427047146      -22.9342731987
 H         4.3018102025        0.5626825813      -24.2284373445
 H         2.6300206038        0.7580681777      -24.8921106621
 H         3.5412233575       -0.4187585700      -22.2096680524
 H         2.9408751390       -1.4253146530      -23.4203587230
 H         1.5370837295       -0.5163282818      -18.0028160913
 H         0.5462359492       -1.8950650301      -18.5503010112
 H        -0.4090208493        1.0321866620      -17.8575038858
 H        -0.0961614818       -0.0967378991      -16.5499235312
 H        -4.7182220602       -2.4991656087      -15.6185780811
 H        -4.3288575400       -1.3641292950      -14.2183455154
 H        -2.3514090077       -3.2808853954      -13.8736819776
 H        -3.5542115072       -4.3868369253      -14.4299729597
 H        -7.1596063414       -2.9051890271      -10.3918917644
 H        -5.6839592741       -2.1571985185      -10.3520451544
 H        -5.8649572885       -2.1176882442       -8.1986978147
 H        -5.6426459258       -3.9100683556       -8.3209217232
 H        -7.1235980296       -5.8942382812       -7.5379689365
 H        -8.1455913937       -6.3206486824       -6.1572575693
 H        -5.1728439900       -6.7252787869       -6.7658307365
 H        -6.4222696355       -8.0292986606       -6.2471711982
 H        -1.7373376518       -8.7138299346       -5.3928823227
 H        -0.9622601880       -7.9835986212       -3.8656538035
 H         0.2095282396       -7.1607528309       -5.7974102939
 H        -0.5392361103       -5.9252190448       -5.2033546264
 H        -3.1478367406       -4.1128279200       -8.0095140467
 H        -2.2424006364       -3.0973408251       -9.1585661980
 H        -3.5668597760       -1.6741279252       -7.6572127704
 H        -1.8509511146       -1.3206133168       -7.2639169763
 H        -4.7930077132        1.0422077421       -4.7976991795
 H        -3.0645070125        1.3929288886       -4.7957245719
 H        -4.8696521525        1.3137781515       -2.3764495911
 H        -4.2719827160        2.7648768505       -3.1966349673
 H        -1.5616586174       -0.9706156353        0.2555522409
 H        -2.5759130392       -1.3262267550       -1.2569788828
 H        -3.8191928852       -1.9566514651        1.4654028557
 H        -2.5156903296       -2.8916551069        0.9679950262
 H        -7.4881490396       -0.7979472240       -1.9039677183
 H        -6.7983854131       -0.6878979573       -0.3412227612
 H        -8.7265812217       -1.1604726445        0.5630639203
 H        -8.9071120042       -2.5744641594       -0.4177789480
 H       -12.5407190396       -0.1014227762       -3.4949739494
 H       -13.5941992941       -0.1918014461       -2.1391494902
 H       -13.7252209236       -1.3979618583       -3.4178821628
 H       -11.3026969725       -3.1982339159        0.0953786242
 H       -12.5925322026       -2.1500967250        0.5098696398
 H       -11.0441024449       -1.8737196323        1.3203594062
 H       -11.4723704561        0.5059075204        0.7945700011
 H       -13.0815214762        0.2213504253       -0.1584501332
 H       -11.8837577500        1.0104650364       -0.8648609929
 H        -7.0240749821       -4.8724641201        0.0253476387
 H        -5.4847245259       -5.0353099668        0.8776692996
 H        -5.5840163609       -5.1991033210       -0.9426103143
 H        -7.0702350690       -2.2669025831        1.1508345605
 H        -5.4073376353       -1.7761452373        1.6377954069
 H        -6.1461256126       -3.3221779878        2.0155683120
 H        -0.9429349292        1.3500332054        0.6203578526
 H        -1.7197282144        3.1043514061        0.7857014887
 H        -0.8848406840        2.4168486155       -0.6667843232
 H        -4.2365076200        2.6362883783        0.9659769162
 H        -5.0494358965        2.4331031319       -0.5548617001
 H        -3.7588554526        3.6486683594       -0.3546759273
 H        -0.4147877239       -2.2497461777       -4.2230321575
 H        -1.7092548111       -2.8206385256       -3.3860973373
 H        -1.1504467536       -1.2213836661       -2.9410823472
 H        -0.4523076360       -0.4199045469       -5.9181152619
 H        -1.0915363871        0.6717589010       -4.7281235894
 H        -1.9166434243        0.2878192258       -6.2673750616
 H         1.3265898467       -6.0344294360       -8.9019919401
 H         1.2273766047       -6.0628615512       -7.2731718372
 H         1.0751317481       -4.4514271067       -8.1054461681
 H        -2.3993498974       -5.8901035582       -9.4370323166
 H        -0.7866784632       -6.5516622016      -10.0020284626
 H        -1.2486011505       -4.8042569921      -10.0209890152
 H        -3.2803221548       -8.1083959965       -2.1003080465
 H        -4.8625273886       -8.9659740464       -2.3883543643
 H        -4.8839462638       -7.2318319812       -2.2691165543
 H        -5.2288060522       -9.7741645312       -4.8539974113
 H        -3.4099212413       -9.8705745606       -4.5942762834
 H        -4.1353870140       -9.1262612180       -6.0634476925
 H        -8.6040102913       -1.4817736766       -6.2807455057
 H        -6.8660230540       -1.8868138465       -5.7151739775
 H        -8.1335682101       -2.5005069384       -4.7246150826
 H        -9.6380052528       -5.0312009629       -7.0213512321
 H       -10.3040841993       -3.5385430411       -6.8649320228
 H        -9.8150749338       -4.3795655085       -5.4192441071
 H        -7.5683054840       -4.2335832331      -12.4265835822
 H        -6.8252473066       -4.1750860390      -13.9169279021
 H        -6.9666409982       -2.6946165384      -12.8784632384
 H        -4.4019167558       -6.3161844422      -12.0088792876
 H        -5.2104434932       -5.9920911071      -13.5682997167
 H        -6.1832936783       -6.4100633944      -12.1918167408
 H        -1.9959503766        1.4537647158      -15.8532136000
 H        -3.1739818463        0.7911524541      -14.7842471589
 H        -3.4082947917        1.8133437392      -16.2585057585
 H        -4.7221713913       -1.5042130398      -17.5530034023
 H        -4.2965933282        0.0908787812      -18.3778264473
 H        -5.1206698348        0.1547654401      -16.8801890095
 H        -0.4266770534       -2.7439695975      -21.8351555370
 H        -1.0580618352       -1.0651829931      -22.1147329710
 H        -0.9156254403       -1.9551335806      -20.5288525640
 H         2.1944984665       -2.9341899588      -21.5639980143
 H         1.4739683390       -2.8835680709      -19.9678410378
 H         2.9118806521       -1.9633364092      -20.4640696631
 H         1.7625738449        2.6154186710      -25.9261112561
 H         3.4763918368        2.3442427938      -26.5106824839
 H         2.7686266760        3.7789248588      -26.5564098180
 H         4.7350824739        4.5395203563      -25.0191243850
 H         5.2659742733        3.0594618060      -24.3126962666
 H         4.5167605591        4.2820002161      -23.1984402864
 H        -2.1841468834        7.2887150597      -19.2458410214
 H        -0.6059405118        6.5483385507      -18.6502192835
 H        -1.9163596495        5.5163451801      -19.3313095252
 H        -1.5309861130        6.9677261250      -22.9222203380
 H        -2.7338531534        7.7071460307      -21.6149411626
 H        -2.4344128702        5.9301738827      -21.9058110643
 Na       -4.5307845178       -4.0910789722       -3.4352527878
 Na        0.5856961826        2.3744959846      -21.9384497763
