232

 C        -0.8487387191        9.4532459822      -20.4021429131
 C        -0.0948263418        8.1924620574      -20.5703863626
 O         1.1286321299        8.2016226301      -20.5423227237
 C        -0.9109631914        6.8294944421      -20.7907190989
 C         0.0053589379        5.6196329536      -21.3218700269
 O        -0.3828890277        4.5136157217      -20.9487101513
 C         1.0541410971        5.9487599830      -22.3415550013
 C         2.2637772687        5.1028577651      -22.6937604017
 C         1.8598486097        4.0895532800      -23.7509195190
 O         0.6827694456        3.7745463323      -24.0498716893
 C         3.0237229365        3.2687068694      -24.2848508165
 C         2.9918701843        2.0708104921      -23.3745054139
 O         2.9487009709        2.3059385230      -22.1876968881
 C         3.0682927117        0.6396784492      -23.9938754110
 C         2.7483296462       -0.5638314404      -23.0855036959
 C         1.3383985677       -0.4178333058      -22.4589183168
 O         0.5119945500        0.2821225189      -23.0357056584
 C         0.9588800511       -1.1748396638      -21.1260410418
 C         0.7563984309       -0.1821833423      -19.9250832737
 O         0.7281509987        1.0501513429      -20.0856139093
 C         0.5933472133       -0.7047162016      -18.4902117054
 C        -0.4277603853        0.0594700578      -17.4762069274
 C        -1.8516408703       -0.4864309032      -17.7600365547
 O        -2.2190068102       -0.9641840714      -18.8341118507
 C        -3.0694599867       -0.3871212277      -16.6987715801
 C        -2.7460093191       -1.5469062108      -15.7375937981
 O        -1.6030685821       -1.8929654340      -15.6096521927
 C        -3.9118841369       -2.0764798212      -14.9829596749
 C        -3.5073929585       -3.2494636220      -14.0707752622
 C        -4.3014148389       -3.1966557931      -12.7627782506
 O        -3.8860302283       -2.3371307010      -12.0317677072
 C        -5.3863693745       -4.2381728753      -12.3406966227
 C        -5.3712801470       -4.0362934585      -10.7980625303
 O        -4.7918123327       -4.8670300918      -10.0390074389
 C        -6.1312232012       -2.9134325050      -10.0967611382
 C        -6.3181111051       -3.0902192690       -8.5550361827
 C        -7.7609559240       -3.2067514735       -8.0775281235
 O        -8.6219212455       -2.9858575035       -8.8786427612
 C        -8.0284458761       -3.6004872508       -6.5636347312
 C        -6.8568011510       -4.5973537249       -6.1001764644
 O        -5.8545644542       -4.1291354393       -5.6667190481
 C        -7.0808194467       -6.1154018818       -6.4093837658
 C        -5.8647402612       -6.9753610108       -6.0461258038
 C        -5.4156170670       -6.9238842935       -4.5357673957
 O        -5.7906990815       -6.0795949631       -3.7721721509
 C        -4.1670211246       -7.8813017650       -4.1234772557
 C        -2.7883182287       -7.0950781817       -4.3512066211
 O        -2.7275009210       -5.9725406414       -3.8888597425
 C        -1.5029355582       -7.7877314916       -5.0323243988
 C        -0.7181189264       -6.7407756048       -5.7884868627
 C        -1.3586511707       -6.5536660241       -7.2586696665
 O        -2.4787689558       -7.0018900147       -7.4990205223
 C        -0.7306678161       -5.4003781331       -8.1073998527
 C        -1.1759523398       -4.1458420521       -7.3805017913
 O        -0.4835475477       -3.6118169346       -6.5564614693
 C        -2.3770091822       -3.3444667832       -7.9972975274
 C        -2.6471938122       -2.0494758099       -7.3084852996
 C        -2.6758383242       -2.3235170017       -5.7525150699
 O        -3.2521039219       -3.2694143498       -5.3487299034
 C        -2.2166392708       -1.2581158917       -4.7575892494
 C        -3.5118002017       -0.6503617469       -4.0127818455
 O        -4.2360674540       -1.4076040981       -3.3849177924
 C        -3.9070757251        0.7721386389       -4.2910658280
 C        -3.9969512366        1.5184981751       -2.9808878539
 C        -2.7612585088        1.4393467006       -2.0678495506
 O        -1.6741654973        1.1058340944       -2.5668166920
 C        -2.8815101976        1.6748318448       -0.5423973950
 C        -3.3708725336        0.2247179142        0.0663396826
 O        -4.5040564995        0.1956986196        0.5568117264
 C        -2.5129443379       -1.0291698513       -0.0128052831
 C        -3.2219022137       -2.2445878159        0.6353256812
 C        -4.1189144771       -2.9839968291       -0.3616461627
 O        -3.5538863948       -3.5187380660       -1.3256864881
 C        -5.6918684031       -3.1959821274       -0.0297874780
 C        -6.5021350669       -2.5274787418       -1.2494710050
 O        -6.3726950042       -3.0308986270       -2.3137445260
 C        -7.3709522307       -1.2103157957       -1.0547881928
 C        -8.7251135026       -1.5554393959       -0.4416327193
 C        -9.8159305483       -0.7769096386       -1.0757218097
 O        -9.6594643375        0.1910042542       -1.7877410036
 C       -11.3784334305       -1.0419216458       -0.6492288829
 C       -12.0489111307       -1.6667626512       -1.8824232631
 O       -11.7338810443       -2.7868569557       -2.2696786384
 C       -13.0014643610       -0.8949571152       -2.7474046749
 C       -11.4443757173       -2.1302271533        0.4664980277
 C       -11.8671217291        0.3980148862       -0.1831155482
 C        -6.0447482483       -4.6784339039       -0.0763506757
 C        -6.1653023472       -2.6394611828        1.2805459174
 C        -1.5364371574        2.1019179291        0.0574416051
 C        -4.0488708013        2.6247065984       -0.2005561894
 C        -1.3544086635       -2.1019387866       -3.8001258991
 C        -1.3435394590       -0.1162103736       -5.4055558856
 C         0.8498693980       -5.3314295707       -8.1180357636
 C        -1.3450524297       -5.6348109226       -9.5442881440
 C        -4.0447994267       -8.1651398236       -2.5947188094
 C        -4.2128277864       -9.2357004563       -4.9326741422
 C        -8.0029922218       -2.2812780737       -5.7616703774
 C        -9.4120959434       -4.1586539319       -6.4605645642
 C        -6.7353789709       -3.8230245035      -13.0222258817
 C        -5.1409414078       -5.7426587038      -12.5126015998
 C        -2.9783090152        0.9445217559      -15.9054712143
 C        -4.3579202779       -0.5808556677      -17.4559629975
 C        -0.4250243876       -1.8459583556      -21.4413960417
 C         1.9367388756       -2.3531783242      -20.7918946652
 C         2.7392923436        3.0343076701      -25.8267800576
 C         4.4880130501        3.9452585133      -24.2931883389
 C        -1.6144534971        6.5860297521      -19.3688186855
 C        -2.0279125576        6.9020729051      -21.9790511264
 H        -0.7093163397        9.8635673808      -19.3779866638
 H        -1.8706006125        9.2354476941      -20.6471155765
 H        -0.4766434604       10.1689892477      -21.1148857691
 H         1.4444206579        6.9307244229      -22.0436851300
 H         0.4212379534        6.0109556612      -23.2876870489
 H         2.7608411065        4.6405028629      -21.8359078567
 H         3.0259334364        5.6552344164      -23.1610119667
 H         4.1065378046        0.3844295898      -24.3968587323
 H         2.4410137125        0.7006867526      -24.7580507137
 H         3.5183864141       -0.6525721769      -22.3499121533
 H         2.7106984889       -1.5122808577      -23.5747362809
 H         1.5293022044       -0.7132821734      -17.9034796914
 H         0.2758559351       -1.6867343258      -18.4796937411
 H        -0.3334567463        1.1100438020      -17.2084706338
 H        -0.1979957972       -0.5380644213      -16.5899132433
 H        -4.6979625624       -2.5005082140      -15.7111665667
 H        -4.3199388949       -1.3094612459      -14.3131959586
 H        -2.4519188373       -3.1767000305      -13.8357185440
 H        -3.6218181911       -4.2907577427      -14.5566420211
 H        -7.1179684561       -2.9011699833      -10.6240180607
 H        -5.6384625802       -1.9899484198      -10.3981245391
 H        -5.6716290888       -2.2175924691       -8.1072502345
 H        -5.7101181755       -4.0279827523       -8.4870241084
 H        -7.3535656906       -6.1767400772       -7.4185408307
 H        -7.9269322935       -6.4259144031       -5.8575726440
 H        -4.9679509715       -6.6209298463       -6.6431033863
 H        -6.2355493034       -7.9291799381       -6.3151027178
 H        -1.7420329719       -8.6224524442       -5.6759468280
 H        -0.9149255571       -8.0809133345       -4.1365960134
 H         0.2740580296       -7.0572278734       -5.8575259537
 H        -0.5092600513       -5.8040520386       -5.2684150558
 H        -3.3184941211       -3.9628310706       -7.9917302979
 H        -2.2388694157       -3.0620805727       -9.0640271110
 H        -3.5989237545       -1.6146605136       -7.5737143669
 H        -1.9380025960       -1.3515027093       -7.4367377549
 H        -4.9184570746        0.8885434896       -4.6627338911
 H        -3.2491431021        1.1943987928       -4.9636967862
 H        -4.8055317663        1.0944238650       -2.4394989871
 H        -4.2482850671        2.5644486245       -3.1061524712
 H        -1.6267704986       -0.8780858759        0.5946705858
 H        -2.3796000241       -1.1915633376       -1.1013958780
 H        -3.8254884487       -1.8970791714        1.4445527979
 H        -2.5727928949       -2.9707017793        1.1367402251
 H        -7.5220092876       -0.8274802999       -2.0409635187
 H        -6.9071974358       -0.5369112454       -0.4200587558
 H        -8.8009440645       -1.2839550933        0.6046360399
 H        -8.8592736808       -2.6366783571       -0.5790503693
 H       -12.3878778471       -0.2449397709       -3.4112291309
 H       -13.7817259669       -0.3355885477       -2.2627248549
 H       -13.4455157681       -1.6066723021       -3.4513179143
 H       -10.9758075523       -3.0330986610        0.0099450832
 H       -12.4557650140       -2.4465453791        0.5185147303
 H       -11.0449989000       -1.8540909914        1.4562479272
 H       -11.0336716291        0.5720632236        0.5146594598
 H       -12.8889997106        0.4839356689        0.2116784187
 H       -11.9205004737        1.1538640372       -0.9240700779
 H        -7.0999906909       -4.9279602664        0.0332417093
 H        -5.4874871694       -5.1013159455        0.7961522267
 H        -5.7604579019       -5.1656309246       -0.9630061136
 H        -7.1766627067       -3.0971911541        1.3501192877
 H        -6.0902255371       -1.5205150171        1.3617690726
 H        -5.6147774637       -3.0587107339        2.0913710418
 H        -1.1230914525        1.3254432211        0.6413236258
 H        -1.6530608356        3.0366773382        0.5971912601
 H        -0.7451799214        2.1126378817       -0.7366386464
 H        -4.2803554576        2.7748489944        0.8616458813
 H        -4.9277902012        2.3344266281       -0.7323480137
 H        -3.8128394910        3.6096437396       -0.6460429691
 H        -0.5205126526       -2.4884473150       -4.2708562357
 H        -1.9400961584       -2.9293454115       -3.3933559388
 H        -1.0953653982       -1.4171813919       -2.9943577956
 H        -0.3252132241       -0.5130493608       -5.6625156748
 H        -1.2261974871        0.7592747032       -4.7410277535
 H        -1.7044855898        0.1564885532       -6.4343481190
 H         1.3502581166       -6.2023355132       -8.5459323613
 H         1.1482394786       -5.4614822204       -7.0842251293
 H         1.1520538280       -4.3953816459       -8.5751971300
 H        -2.3647997717       -5.9269821850       -9.5387191502
 H        -0.6792462383       -6.2904449464      -10.0773814020
 H        -1.3309826036       -4.6837449221      -10.0427641646
 H        -3.1884719628       -8.8461026056       -2.2785295375
 H        -5.0294785594       -8.6231369100       -2.3951501201
 H        -4.0720380499       -7.1306163772       -2.1643110487
 H        -5.1791289993       -9.7029531600       -4.9449918768
 H        -3.3992613239       -9.8498247047       -4.6173336268
 H        -4.0502371592       -8.9959826133       -5.9199680237
 H        -8.7409613682       -1.6364078492       -6.2836557367
 H        -7.0112798001       -1.7962367817       -5.8278023301
 H        -8.0791959360       -2.4723635274       -4.6669646871
 H        -9.6523033386       -5.0640717502       -7.0815837116
 H        -9.9549974045       -3.4170555157       -6.9840105281
 H        -9.8492699785       -4.2738412839       -5.4568698589
 H        -7.6104714084       -4.2144474465      -12.4332576980
 H        -6.9123673795       -4.2629668114      -13.9985132866
 H        -6.9251375440       -2.6677478701      -13.0656377650
 H        -4.3966002605       -6.1076500082      -11.8926968296
 H        -4.8830811483       -6.0177080720      -13.5308802474
 H        -6.1145485696       -6.2167132022      -12.1857663210
 H        -1.9470834247        1.3613431350      -15.6022468028
 H        -3.5468351318        0.9582051325      -15.0073078627
 H        -3.1439097987        1.7594600497      -16.5587289848
 H        -4.4599121607       -1.5271895616      -18.0138542861
 H        -4.5954388187        0.3077839047      -18.0381200321
 H        -5.1242706022       -0.5177669917      -16.6283225128
 H        -0.3272597026       -2.6353803501      -22.2478458532
 H        -1.0722085259       -1.0529399047      -21.6994460670
 H        -0.7021233482       -2.4416783247      -20.6161121213
 H         1.9244999879       -3.2547870667      -21.3562416494
 H         1.8070025791       -2.6117216001      -19.7670122050
 H         2.9741556231       -2.0376771563      -20.9040653355
 H         1.9726448878        2.4767188243      -26.1883235054
 H         3.6060664411        2.8118430984      -26.3414214355
 H         2.5358970531        3.9770881621      -26.2629608952
 H         4.2586724467        4.8413107179      -24.8296138660
 H         5.2857751033        3.4525710765      -24.8492323588
 H         4.6858176166        4.1577327105      -23.2248395212
 H        -2.2298633535        7.4196871574      -19.2614816233
 H        -0.8062237418        6.5682456205      -18.6019703693
 H        -2.1619330110        5.6278904410      -19.2922161715
 H        -1.6097316559        7.2481620508      -22.9324571511
 H        -2.6100161827        7.6137925779      -21.5367540247
 H        -2.4657266260        5.9247504429      -22.1618369879
 Na       -4.5060666592       -4.2214418618       -3.5195459265
 Na        0.3462967272        2.4410342242      -21.9397511594
