232

 C        -0.6966084991        9.6197781839      -20.5680909903
 C        -0.0220130590        8.1516752952      -20.4359964752
 O         1.1867465486        8.0813979448      -20.2482053085
 C        -0.9441674156        6.9012627058      -20.7545814515
 C        -0.0611932994        5.7547770405      -21.2452200140
 O        -0.0379279899        4.6564992514      -20.7368488729
 C         0.8797754764        6.1193357589      -22.4585599896
 C         2.0413780466        5.1547776053      -22.5699839691
 C         1.7224195210        3.9975814492      -23.6821636763
 O         0.5910210730        3.6653686913      -23.8787227946
 C         2.8808707678        3.2286444078      -24.3484667723
 C         2.8660376252        1.8434627487      -23.5473312854
 O         2.9231160162        1.9253522264      -22.3271531323
 C         2.7983880169        0.4939993986      -24.1675530997
 C         2.6310688083       -0.5112496586      -23.0198871469
 C         1.2371014763       -0.4011292554      -22.3441430923
 O         0.3439171425        0.3149596832      -22.7870990643
 C         0.9393465566       -1.1912546182      -21.0512188755
 C         0.7337017756       -0.2503543586      -19.8416618520
 O         0.6319138911        0.9353613697      -19.9740792859
 C         0.5331023430       -0.7335036810      -18.4757294081
 C        -0.4768130190       -0.0087939161      -17.6358181908
 C        -1.8703065566       -0.5303101548      -17.9877213600
 O        -2.1253730396       -1.0124345631      -19.0431712785
 C        -3.0152148335       -0.4253862780      -16.7989881870
 C        -2.7412987764       -1.5536089081      -15.7714352834
 O        -1.6004674190       -1.8990905727      -15.5237749315
 C        -3.9256164159       -2.1448675816      -15.0203033879
 C        -3.6018768662       -3.3366966365      -14.1186056218
 C        -4.2351321620       -3.0948600926      -12.7637452360
 O        -3.7933833613       -2.1564146146      -12.1098939803
 C        -5.2458480956       -4.1312105928      -12.3772403321
 C        -5.3901783888       -4.0114166441      -10.7141194404
 O        -4.8391615617       -4.8297141398      -10.0652714196
 C        -6.0657388971       -2.7310301436      -10.1218425791
 C        -6.2102118258       -2.8903079160       -8.5177350867
 C        -7.6477286087       -3.1582235266       -8.1344113832
 O        -8.5439823632       -3.0207151786       -8.9277092084
 C        -7.9234539269       -3.6710081425       -6.6078795023
 C        -6.7791751352       -4.5872002895       -6.0276112358
 O        -5.8127002554       -4.0372861639       -5.4818817619
 C        -6.9877933067       -6.0744542570       -6.0397649579
 C        -5.6685575413       -6.8451043838       -5.9767942817
 C        -5.1946630736       -6.9453632705       -4.4628217724
 O        -5.7795399611       -6.4119177398       -3.5267174647
 C        -4.0339446600       -7.8930108356       -4.1138575860
 C        -2.6770288899       -6.9772879139       -4.3622626512
 O        -2.5591797841       -5.8739411298       -3.8992549815
 C        -1.5520077039       -7.6867766177       -5.0886216354
 C        -0.6791979065       -6.7350706252       -5.9556283999
 C        -1.3092770220       -6.3958090556       -7.3399759563
 O        -2.1950194653       -7.0837418522       -7.7509755470
 C        -0.6757605625       -5.2627888483       -8.2599417365
 C        -1.2825497987       -3.8756372637       -7.5924925368
 O        -0.6666258809       -3.3819696432       -6.6664743042
 C        -2.6000037944       -3.2619902026       -8.0772833128
 C        -2.7115377429       -1.9505836311       -7.2831880742
 C        -2.7358320323       -2.3109810597       -5.7876341532
 O        -3.2308398877       -3.4101217095       -5.5175227039
 C        -2.2216421234       -1.3559890777       -4.6787960795
 C        -3.4972456108       -0.8625575989       -4.0528819934
 O        -4.1430725388       -1.5723185099       -3.3142971065
 C        -4.0018931297        0.6209529337       -4.2406479633
 C        -4.1169272604        1.3445232788       -2.8931628857
 C        -2.7901466855        1.3384755237       -2.1011245507
 O        -1.7317690997        0.9875329840       -2.6021761945
 C        -2.9263047314        1.5479709708       -0.5246328541
 C        -3.5550377139        0.2501522595        0.1233854360
 O        -4.7039079575        0.1494473479        0.4270781068
 C        -2.5416634123       -0.9882936379        0.2657631713
 C        -3.2150528727       -2.2641668159        0.7460845486
 C        -4.2238416063       -2.8795226225       -0.2572327193
 O        -3.7896539782       -3.2723332005       -1.2794050680
 C        -5.7420195612       -3.1400322087        0.0432228977
 C        -6.4836354813       -2.5437499893       -1.2169350413
 O        -6.2674900484       -3.0301980771       -2.3341415334
 C        -7.3127813697       -1.2839287643       -1.0672752229
 C        -8.7274807043       -1.7556024584       -0.5611261522
 C        -9.8458766396       -0.8039706077       -1.1760562247
 O        -9.5705872510        0.0825382068       -2.0062557551
 C       -11.2932782402       -1.0492486570       -0.6500447236
 C       -11.9119567292       -1.6760828256       -1.8939006734
 O       -11.4774478083       -2.6919884469       -2.3414057294
 C       -13.0002540015       -0.9202545409       -2.6165299444
 C       -11.4212037628       -1.9314398237        0.5920789798
 C       -12.0635629268        0.2687478594       -0.2354719033
 C        -5.9472622083       -4.6375540487       -0.1018996090
 C        -6.2451684808       -2.7681175809        1.4160376784
 C        -1.4647628403        1.8653623679        0.0598916532
 C        -3.8701284672        2.8215311125       -0.4026626395
 C        -1.4759145378       -2.0944940082       -3.5556526659
 C        -1.2798697452       -0.3328516806       -5.2206006794
 C         0.8655276023       -5.3849145210       -8.2141013099
 C        -1.1895557032       -5.3990077560       -9.7555546333
 C        -4.1765715537       -8.2785052563       -2.5183762884
 C        -4.0999445886       -9.2215948126       -5.0305244044
 C        -7.8552624459       -2.3949725021       -5.7995733356
 C        -9.2937434135       -4.3635744908       -6.6132105263
 C        -6.5776959674       -3.7252411253      -13.0909033106
 C        -4.7652980956       -5.5973698768      -12.7405409537
 C        -3.0377998391        1.0097730816      -16.0244934707
 C        -4.4276338479       -0.4604610824      -17.5135734221
 C        -0.5094911707       -1.9270683514      -21.2188736350
 C         1.9825426189       -2.2773661589      -20.6566706429
 C         2.5804727179        2.8916489277      -25.8511338294
 C         4.1420065449        4.0060535917      -24.2310033014
 C        -1.7130288349        6.4743263663      -19.4676500361
 C        -1.9168158015        7.2353427266      -21.9942810019
 H        -0.5655434251       10.1102221311      -19.6096670639
 H        -1.7807598802        9.6274626580      -20.8720412167
 H        -0.0938630176       10.2024220707      -21.3006651043
 H         1.2465207204        7.1442191178      -22.3582619937
 H         0.3171498576        5.9618850570      -23.3706840392
 H         2.2454550228        4.6459895279      -21.5975610746
 H         3.0472624904        5.6266851258      -22.8201831052
 H         3.7436710824        0.2669205591      -24.5974730161
 H         1.9473527751        0.3582457733      -24.9782134067
 H         3.3952100574       -0.3618837040      -22.1927757595
 H         2.7734786270       -1.5858756905      -23.3660315564
 H         1.4450141870       -0.6797585714      -17.9216643110
 H         0.2080508601       -1.8258438969      -18.4879553442
 H        -0.5367782976        1.0410004534      -17.9434801400
 H        -0.1911555273       -0.0626169859      -16.5914398944
 H        -4.6072781981       -2.4978070766      -15.7052028925
 H        -4.3566794845       -1.3993814840      -14.3522220280
 H        -2.5005108270       -3.4639273059      -13.9833965355
 H        -3.9584205028       -4.2252575540      -14.5462682981
 H        -7.0347341819       -2.4911484641      -10.6276887523
 H        -5.3440646345       -1.9131732232      -10.4638909248
 H        -5.8621265692       -2.0177450396       -8.1431656634
 H        -5.5421069402       -3.6962045491       -8.2387590002
 H        -7.6062048199       -6.2865410597       -6.9647067313
 H        -7.7375081393       -6.2227010256       -5.2186496668
 H        -4.9649622056       -6.2593211136       -6.4857608968
 H        -5.9278819673       -7.8005862765       -6.4835002203
 H        -2.1426211770       -8.2649675069       -5.8041969186
 H        -0.9994718018       -8.2665619856       -4.3799978169
 H         0.3588435357       -7.1793246425       -6.2249136786
 H        -0.2733048096       -5.8831756240       -5.3609837901
 H        -3.3752800567       -3.9656403126       -7.9058053638
 H        -2.6290823117       -3.0406628425       -9.1429901664
 H        -3.7147318906       -1.5395270204       -7.3187084864
 H        -1.9339363596       -1.1138062833       -7.5013607093
 H        -5.0293172297        0.5220838333       -4.6994335497
 H        -3.4376546875        1.3016654529       -4.9546702677
 H        -4.8571836325        0.8328702725       -2.2079299650
 H        -4.4499552235        2.3965089649       -2.8631892691
 H        -1.7988175982       -0.8561446222        1.0536969040
 H        -2.2228573919       -1.2356616103       -0.7427016946
 H        -3.5516257936       -2.1838924506        1.8224344901
 H        -2.4371574144       -3.0190788008        0.8705643457
 H        -7.3641144920       -0.7101496332       -2.0721110232
 H        -6.8935998097       -0.6640253222       -0.1833224930
 H        -8.7539203646       -1.7504510533        0.5776297980
 H        -8.7970510273       -2.8158335846       -0.9101913092
 H       -12.7065987890        0.0318113851       -2.9930938745
 H       -13.8588332960       -0.8252068366       -1.9279362145
 H       -13.3380349895       -1.4793623825       -3.5283253486
 H       -11.0489197467       -2.9425216174        0.4450484485
 H       -12.4403449161       -1.9266670700        1.0563074613
 H       -10.7845694167       -1.3774518714        1.2398567326
 H       -11.6084307907        0.8474237495        0.5494685755
 H       -13.0805485650       -0.0197719794       -0.0018462785
 H       -12.2415331826        0.9248306125       -1.1038754032
 H        -6.9977663859       -4.8157747313       -0.0022903158
 H        -5.2725837993       -5.2312372477        0.4804703829
 H        -5.8621662404       -4.9450811401       -1.1545552209
 H        -6.6939955879       -3.5239806689        2.0297342025
 H        -6.8181142757       -1.8513918681        1.2653775628
 H        -5.3373496783       -2.3921951216        1.9471392561
 H        -1.3492325812        1.5111104571        1.1052512378
 H        -1.4022343546        2.9590543341        0.0372526298
 H        -0.7527309190        1.2694398082       -0.3998574682
 H        -3.7262040888        3.1207330839        0.6210066593
 H        -4.9699137590        2.6098548894       -0.5276621078
 H        -3.7393594470        3.6324413972       -1.1361174955
 H        -0.7731595631       -2.8504477123       -4.0288623992
 H        -2.2063826879       -2.5906902877       -2.8561656411
 H        -0.8061452418       -1.3808156886       -2.9805642554
 H        -0.5632055563       -0.7334156456       -5.9513164599
 H        -0.7770979695        0.0672666912       -4.3484180752
 H        -1.8058916906        0.4819915723       -5.7389569199
 H         1.1543193784       -6.3353948661       -7.8015437499
 H         1.3186707350       -4.6982582936       -7.4998304951
 H         1.2313594276       -5.2882848902       -9.2484000039
 H        -2.2816917470       -5.2686132926       -9.7025957724
 H        -0.9575373649       -6.3957607023      -10.1459825899
 H        -0.6962028286       -4.7170204602      -10.4598838171
 H        -3.8008623372       -9.2875019448       -2.5048621748
 H        -5.1953434495       -8.1782221941       -2.0953611585
 H        -3.4547053783       -7.6784567016       -2.0305805868
 H        -5.0530866991       -9.6549343856       -4.8684346730
 H        -3.3021616817       -9.8820412891       -4.7714726639
 H        -4.1240613027       -8.9596215762       -6.1345674465
 H        -8.5982755473       -1.7473997032       -6.2881161206
 H        -6.9466988091       -1.8333318721       -5.9257208894
 H        -7.8876338555       -2.5638366761       -4.7713966285
 H        -9.2926375234       -5.2586594058       -7.2342600652
 H       -10.0815506884       -3.6759638334       -7.0762346900
 H        -9.6572032230       -4.6778286744       -5.6176418759
 H        -7.4220521549       -4.3441147145      -12.9924251148
 H        -6.3317022409       -3.8266964202      -14.1820331581
 H        -6.8966011555       -2.7275873548      -12.9243471336
 H        -3.6453613387       -5.6283108575      -12.3628683319
 H        -4.6033033408       -5.7066514200      -13.7984349531
 H        -5.3795211714       -6.3570679194      -12.2604530093
 H        -2.6172365798        1.1490657676      -15.1032657823
 H        -4.1153724566        1.1126672589      -15.7305255927
 H        -2.5731422833        1.8545261722      -16.5797401822
 H        -4.4003089441       -1.2192954935      -18.3571016110
 H        -4.4732365659        0.5326828897      -18.0238097268
 H        -5.3097772325       -0.5504013753      -16.9011428602
 H        -0.6964923052       -2.2930199016      -22.1898263265
 H        -1.1703884221       -1.0271899461      -21.0034989125
 H        -0.5853076052       -2.8222835398      -20.5408089344
 H         2.1334395079       -3.1042533578      -21.3631255758
 H         1.7673660583       -2.7721783363      -19.6622143954
 H         2.9987397501       -1.8889407960      -20.5446788611
 H         1.5202147699        2.4493373447      -25.9167552816
 H         3.1908644777        2.1128193650      -26.4376670807
 H         2.4562568426        3.7336957307      -26.5373295678
 H         3.9912661890        5.0569481057      -24.5334073138
 H         4.8378956727        3.5690266643      -24.9543540587
 H         4.4681294411        3.9214397604      -23.2091681070
 H        -2.2858885356        7.4086041443      -19.2278964130
 H        -1.0832997217        6.1995907720      -18.6357451612
 H        -2.3119409754        5.6125986870      -19.6693326952
 H        -1.2242225932        7.7230951228      -22.7280622513
 H        -2.6547917600        8.0189190095      -21.7205796127
 H        -2.2878399358        6.3101890898      -22.3720721483
 Na       -4.3849081828       -4.0993842672       -3.4728187744
 Na        0.0253645678        2.4861655732      -21.9038504295
