232

 C        -0.5508224877        9.6451512011      -20.5736766597
 C        -0.0964256727        8.2264297497      -20.3657757199
 O         1.0419323834        7.9546629003      -20.0683945347
 C        -0.9491654352        7.0123679541      -20.7719197516
 C         0.0058131333        5.8988686575      -21.2523477045
 O         0.0907565211        4.8144089143      -20.7017343635
 C         0.8339378632        6.0400908115      -22.5567762930
 C         1.9371568406        5.0251292522      -22.6708506867
 C         1.5923790673        3.9461687936      -23.6137116386
 O         0.4721668091        3.6143735754      -23.8276144132
 C         2.7702286825        3.1279818049      -24.3104870769
 C         2.8182878224        1.7705805150      -23.5502190683
 O         2.9180762863        1.9221926713      -22.3275436539
 C         2.6352698418        0.4205460902      -24.2240194385
 C         2.4840542713       -0.6024471210      -23.0358044498
 C         1.1391712690       -0.3968478043      -22.3025138956
 O         0.3819380107        0.4257951397      -22.6750638357
 C         0.8797456568       -1.2081657382      -21.0339429778
 C         0.6568819651       -0.2013038586      -19.8268964520
 O         0.4989328817        1.0070719779      -20.0860163040
 C         0.5757193293       -0.8052577048      -18.3512936015
 C        -0.5016361401       -0.0087028675      -17.6220677893
 C        -1.9140179601       -0.4713727060      -17.9503297521
 O        -2.2287952412       -0.9939310004      -19.0100324185
 C        -3.0474350939       -0.4119222401      -16.9652798356
 C        -2.7633873927       -1.5270707592      -15.9103160170
 O        -1.6377447169       -1.7697096163      -15.5894181014
 C        -3.9854175960       -2.0510856868      -15.1715023058
 C        -3.4990089354       -3.2397638907      -14.2275390748
 C        -4.0284576100       -3.0691356998      -12.7964240545
 O        -3.8124479141       -2.0933865838      -12.1411347834
 C        -5.1944028382       -4.0850410047      -12.2859861565
 C        -5.3453985768       -4.0390834681      -10.6956031354
 O        -4.8182587569       -4.9529670936       -9.9986803227
 C        -5.9044940774       -2.8005428837      -10.1230198663
 C        -6.1678055590       -2.7217774198       -8.5836735743
 C        -7.6327046740       -3.2797282191       -8.1543493335
 O        -8.5978700686       -3.0939074228       -8.8855730162
 C        -7.8909170494       -3.6514008936       -6.6825062555
 C        -6.7776244468       -4.5177026254       -5.9778345456
 O        -5.8313280022       -4.0111225789       -5.4501877745
 C        -6.9509141173       -6.0389263429       -5.9165225987
 C        -5.5733670730       -6.7695996612       -5.8225916066
 C        -5.2431208746       -7.0350319793       -4.3513287612
 O        -5.8019076854       -6.4295170142       -3.4679887256
 C        -3.8898965807       -7.9543770384       -4.0548375572
 C        -2.6626149821       -7.0308681617       -4.3482077046
 O        -2.6068859403       -5.9030878834       -3.9635254800
 C        -1.4128483819       -7.6318080543       -5.2348281478
 C        -0.7074599713       -6.6089603350       -6.0347384284
 C        -1.2313244224       -6.4105004335       -7.4902289268
 O        -2.1865839825       -7.0786808208       -7.9362582000
 C        -0.7142897863       -5.2366692446       -8.3150007569
 C        -1.2658058367       -3.8268886460       -7.6541062007
 O        -0.6016656064       -3.3616415008       -6.7940341181
 C        -2.5025782566       -3.1618969383       -8.2155784788
 C        -2.8287875844       -1.9522461850       -7.2875631715
 C        -2.7697109490       -2.4583528365       -5.7969896032
 O        -3.2477277651       -3.4912996494       -5.4663719134
 C        -2.1186945263       -1.4187805073       -4.6650747276
 C        -3.5271675637       -0.8713456443       -3.9847977211
 O        -4.2283510019       -1.6315658806       -3.3412838989
 C        -4.0067943280        0.5738172756       -4.1901440266
 C        -4.1910724907        1.2200091155       -2.8664082624
 C        -2.9032764900        1.2345172715       -2.0035736751
 O        -1.8337194848        0.9327677082       -2.5952525798
 C        -2.9156739126        1.5776408455       -0.4790417775
 C        -3.5658908158        0.2218317574        0.1008545432
 O        -4.7681706311        0.2014274496        0.2793787179
 C        -2.6466275840       -0.9459218344        0.3343533187
 C        -3.2983554233       -2.2729717795        0.8204175067
 C        -4.1137298228       -2.8949963511       -0.2379136547
 O        -3.6060844930       -3.2177703348       -1.3113589283
 C        -5.7448565353       -3.1334452887        0.0170108473
 C        -6.3828582280       -2.4890377149       -1.2158367620
 O        -6.2744678304       -3.0309834306       -2.2926590352
 C        -7.3650081479       -1.2921638773       -1.0345023601
 C        -8.7866194644       -1.7527897228       -0.7035856990
 C        -9.8054731182       -0.7417286102       -1.0934402725
 O        -9.5369535539        0.0245398787       -2.0503548444
 C       -11.2823670781       -0.9714908686       -0.6114297485
 C       -11.9307508932       -1.7620766447       -1.8642510645
 O       -11.3532311543       -2.6914836680       -2.3263859176
 C       -13.0914987764       -0.9907658193       -2.6388849176
 C       -11.3714143745       -1.9327153662        0.6078171519
 C       -12.1241257021        0.3682238133       -0.3200954764
 C        -5.8401805522       -4.7446395842       -0.0340054302
 C        -6.3404543154       -2.7680956841        1.4604056036
 C        -1.4886791772        1.7519740038        0.0420508396
 C        -3.7858788927        2.7923346261       -0.2970223505
 C        -1.4848554941       -2.2581857236       -3.4929552390
 C        -1.1560546558       -0.3402639013       -5.2885590851
 C         0.8820978207       -5.2867532290       -8.2118790684
 C        -1.1834127850       -5.3560540819       -9.7251652762
 C        -4.1109866827       -8.2803416617       -2.6111680532
 C        -3.9577327973       -9.1359235781       -4.9569619275
 C        -7.8876191626       -2.3139546684       -5.8043097489
 C        -9.2239424132       -4.3773291745       -6.6711373318
 C        -6.5075923611       -3.7215648736      -13.0725613095
 C        -4.8017932117       -5.5231947139      -12.5437934206
 C        -2.8596606315        0.9366169550      -16.1594272897
 C        -4.3872725393       -0.4503416922      -17.6681467698
 C        -0.4606482984       -1.9865716909      -21.1799040556
 C         2.0202070940       -2.2386778784      -20.6269012936
 C         2.3854507593        2.9046674182      -25.8317431397
 C         4.1911032633        3.8719738585      -24.2607215970
 C        -1.7757809245        6.4553230579      -19.4666321432
 C        -1.9030053210        7.4460900215      -21.9685201971
 H        -0.3398831770       10.1212040125      -19.6119505793
 H        -1.6304353160        9.6488973708      -20.7409720723
 H        -0.0138344219       10.1442271402      -21.3392303851
 H         1.2874080398        6.9415025883      -22.5100740271
 H         0.2233464671        5.9697015008      -23.4826533201
 H         2.1955405364        4.4507403091      -21.7392554205
 H         2.8777059060        5.4168853773      -22.9604793128
 H         3.5884173669        0.1232161793      -24.8652252576
 H         1.7851093193        0.3623569327      -24.8098833806
 H         3.1791442501       -0.4206444763      -22.2022080073
 H         2.6503114781       -1.6654718811      -23.3159270804
 H         1.5926547597       -0.7534937847      -17.8229908648
 H         0.2262383543       -1.8703260076      -18.3944471846
 H        -0.3954480024        1.0764057786      -17.9576556850
 H        -0.4014349407       -0.0423979815      -16.5341306810
 H        -4.7178518691       -2.4010239255      -15.8944384590
 H        -4.3731592884       -1.2859115334      -14.5351588554
 H        -2.4211775825       -3.0693197716      -14.1191864487
 H        -3.6213728996       -4.2499006486      -14.6618985841
 H        -6.8319449871       -2.6474382823      -10.5565523429
 H        -5.2901328304       -1.9972978854      -10.5683372275
 H        -6.0761897451       -1.6583009038       -8.5016613272
 H        -5.3845107607       -3.1774050487       -8.0341094322
 H        -7.5346920694       -6.3144118371       -6.8436859319
 H        -7.7252442948       -6.2006060142       -5.1053432901
 H        -4.7774662725       -6.0536505226       -6.1466026628
 H        -5.7045229899       -7.6453825807       -6.4454869180
 H        -1.8270469334       -8.3780924419       -5.8852725272
 H        -0.6435170989       -7.9804407614       -4.4833488771
 H         0.3967719110       -6.8660191252       -6.0498174482
 H        -0.6075633142       -5.7019345030       -5.4350261389
 H        -3.2692150831       -3.9222498607       -8.1548109219
 H        -2.4663266726       -2.8324206215       -9.2670038450
 H        -3.9435320626       -1.5848873336       -7.2936096087
 H        -2.1454990969       -1.0835850041       -7.3565597489
 H        -4.9655160330        0.5270587718       -4.8414793707
 H        -3.3396861103        1.1682373486       -4.7330101421
 H        -4.9983494833        0.8094015146       -2.2760707425
 H        -4.4104373601        2.3585114304       -2.8598807693
 H        -2.0082254043       -0.7142402922        1.1327582670
 H        -2.2418757264       -1.2297183438       -0.6679056475
 H        -3.9285957131       -2.2458118454        1.7368492115
 H        -2.5103929612       -2.9486372229        1.1322414532
 H        -7.4231861377       -0.7570390537       -2.0262087937
 H        -7.1425623459       -0.6365960549       -0.2396525286
 H        -8.8574948101       -1.9555223519        0.3741350721
 H        -8.9585312960       -2.6663648292       -1.2310964616
 H       -12.8637558878        0.0109544826       -2.8873743930
 H       -13.9658977824       -1.0393320976       -2.0461738999
 H       -13.3524662524       -1.4470913357       -3.6402966976
 H       -10.9753138632       -2.9476353826        0.2469843694
 H       -12.3690476752       -1.9768668130        1.0309907362
 H       -10.7410656573       -1.5615398182        1.3538265461
 H       -11.9437391397        0.7824468722        0.7266934470
 H       -13.2197675904        0.1775343389       -0.4119256261
 H       -11.8943582643        1.1508022674       -0.9858490199
 H        -6.8590678104       -5.0849081313       -0.0769026859
 H        -5.1022738854       -5.1706974313        0.7205089758
 H        -5.5123989962       -5.1084452828       -0.9819864957
 H        -6.8922839370       -3.5566965168        1.8808848807
 H        -6.9332731461       -1.8410611130        1.2051628998
 H        -5.6246056239       -2.5034703186        2.1707404151
 H        -1.5214174493        1.9333244296        1.1450872575
 H        -0.9540748852        2.6251504565       -0.4175485506
 H        -1.1207261487        0.7596591947        0.0575865607
 H        -3.6114985176        3.1174483092        0.7221032470
 H        -4.8285489633        2.5392019784       -0.3786269735
 H        -3.7471629751        3.5710844855       -1.0907695323
 H        -0.7143202470       -2.8246865937       -3.8828017306
 H        -2.2281365167       -2.8441584603       -2.9065281896
 H        -0.9285497100       -1.5440202385       -2.8060564136
 H        -0.4256333543       -0.7821601814       -5.9357066927
 H        -0.7342932851        0.2643538936       -4.5640512163
 H        -1.8045032714        0.2813341024       -5.8818111790
 H         1.2005383971       -6.2327775872       -7.7942920065
 H         1.2476196404       -4.5230712439       -7.5475885746
 H         1.2772957495       -5.1986721673       -9.2533758632
 H        -2.2694082855       -5.1642443317       -9.7956849943
 H        -1.0297370087       -6.4415447362       -9.9204014108
 H        -0.5328562050       -4.8979749418      -10.4912051398
 H        -3.8087214533       -9.3024923961       -2.4614951278
 H        -5.1499049071       -8.1555533767       -2.4277853718
 H        -3.5305136484       -7.6839920141       -2.0004694526
 H        -4.9569057017       -9.6563745196       -4.8289491200
 H        -3.0979787159       -9.8244219295       -4.7049020918
 H        -3.9408919433       -8.7579588149       -6.0066959694
 H        -8.6587067323       -1.6297889491       -6.2452220455
 H        -7.0221329304       -1.7167875908       -5.7085786026
 H        -8.1301861301       -2.6996456996       -4.8249797560
 H        -9.1902328047       -5.2385029111       -7.3512180807
 H       -10.0553452774       -3.7927196677       -6.8829984628
 H        -9.3769334742       -4.8326751259       -5.6979051840
 H        -7.2073583744       -4.4552206213      -13.2213633233
 H        -6.1726854568       -3.5600107792      -14.0315758852
 H        -7.0807034577       -2.8241107663      -12.7652274822
 H        -3.7173340625       -5.5032485682      -12.7049817632
 H        -5.1074629424       -5.7405840933      -13.5333073822
 H        -5.1038992761       -6.2764384640      -11.7391361380
 H        -2.2384968005        0.6612169130      -15.2771355233
 H        -3.6954695225        1.3165947365      -15.6033247225
 H        -2.2615537849        1.7090634845      -16.6106797737
 H        -4.6031318904       -1.4282841277      -18.1918489806
 H        -4.3616083874        0.2823846279      -18.4544208332
 H        -5.2130402296       -0.1945106599      -16.9639509340
 H        -0.3706960207       -2.6445679084      -22.0569397241
 H        -1.1944488468       -1.1957977115      -21.3859565087
 H        -0.6212069849       -2.6377897202      -20.3355140256
 H         2.4335697001       -2.7187503403      -21.5033197130
 H         1.7692120036       -3.1141429000      -19.9517158903
 H         2.8998065051       -1.7883868854      -20.1597279231
 H         1.2827466139        2.7525994042      -26.0637573175
 H         2.8045180715        1.9443088277      -26.3372104495
 H         2.6213575870        3.7716844477      -26.5267445055
 H         4.2053152542        4.7668100186      -24.8109557464
 H         4.8693005699        3.1284218873      -24.7452431694
 H         4.4924128983        4.0249498435      -23.2076747565
 H        -2.2514879451        7.3041933846      -19.0869170331
 H        -1.0693329785        6.0631773622      -18.6600295612
 H        -2.4467538318        5.6020263310      -19.7069192514
 H        -1.2433825746        8.0255647344      -22.7524829320
 H        -2.6962705563        8.1194224969      -21.6480711389
 H        -2.2904204511        6.4703151367      -22.3165719857
 Na       -4.3386346609       -4.0233424433       -3.4262702688
 Na       -0.0008769172        2.4259262365      -21.7852892571
