232

 C        -0.3474890171        9.6624496541      -20.4073540603
 C         0.0619947532        8.1605153601      -20.2335641759
 O         1.0225633778        7.9395219344      -19.5236933546
 C        -0.9423887843        7.0561257477      -20.8279143031
 C        -0.0827692858        5.8727779717      -21.3725281914
 O        -0.0248044387        4.8636964236      -20.6971341414
 C         0.6905132358        6.0526920212      -22.6356762115
 C         1.8791057015        5.1010821301      -22.8735904464
 C         1.5443909259        3.8803206282      -23.7185320443
 O         0.3595497759        3.4677516289      -23.7239973043
 C         2.5538451875        2.9859845025      -24.4271709855
 C         2.5686075246        1.7428961350      -23.4695755366
 O         2.8853343103        1.8723831911      -22.2999333624
 C         2.4501149304        0.3762269665      -24.2519378764
 C         2.2480895104       -0.8214193650      -23.3428943293
 C         1.0873117553       -0.4921463148      -22.3032991856
 O         0.3007843262        0.4375895860      -22.6310919767
 C         0.8700422237       -1.2761485042      -20.9934775170
 C         0.5162924386       -0.1663772758      -19.7727335974
 O         0.2109677069        0.9498962997      -19.9894516239
 C         0.6477037679       -0.7114920383      -18.3767808685
 C        -0.4334557944       -0.0873593648      -17.5184277904
 C        -1.8880418835       -0.4607188935      -18.1030114157
 O        -2.0634027698       -0.8856531937      -19.2071980094
 C        -2.9600769164       -0.2559979758      -17.0117345204
 C        -2.8251231319       -1.3743788092      -15.9244094476
 O        -1.6977314859       -1.7720979643      -15.6774536340
 C        -4.0350902582       -2.1044956746      -15.2239279127
 C        -3.4953942988       -3.1606964962      -14.2095558556
 C        -4.0074017584       -3.0682152530      -12.7296154005
 O        -3.8258623705       -2.0022847539      -12.1447583811
 C        -5.0837246022       -4.1234035876      -12.1690148769
 C        -5.2411081083       -3.9587104371      -10.6012702459
 O        -4.9357814250       -4.7707143947       -9.8163000390
 C        -5.8782720708       -2.6482448540      -10.0645751944
 C        -6.0866983507       -2.7157906061       -8.5149608828
 C        -7.5486946077       -3.2487748555       -8.2207759199
 O        -8.4095518031       -3.3771884912       -9.0676141843
 C        -7.9833396798       -3.5655033415       -6.6287221409
 C        -6.7659014149       -4.3558953708       -5.9374810382
 O        -5.8041024719       -3.8155161540       -5.3884099759
 C        -6.7710328113       -5.8833870796       -5.9692832894
 C        -5.4842598700       -6.7128371264       -5.7408930510
 C        -5.1191106113       -7.1190007809       -4.2399873532
 O        -5.5646525030       -6.4484993590       -3.3496525338
 C        -3.7863250521       -7.9526518708       -4.0726518434
 C        -2.6099904299       -6.9814388178       -4.3858806570
 O        -2.6899443135       -5.8387316428       -3.9700731199
 C        -1.4756872531       -7.4734430227       -5.1966809850
 C        -0.8812744822       -6.2377140166       -6.0745458254
 C        -1.2684868870       -6.2876109859       -7.5371554696
 O        -2.0464065846       -7.0625054209       -7.9742604873
 C        -0.6618037758       -5.1072164539       -8.4868480599
 C        -1.0982971537       -3.7856330328       -7.7934854243
 O        -0.3927640615       -3.3014920938       -6.8806282644
 C        -2.3762333215       -3.0299670977       -8.3206038536
 C        -2.8709427031       -2.0262806420       -7.3297235340
 C        -2.7356514152       -2.5978743938       -5.7618585130
 O        -3.1308820504       -3.7569310924       -5.4777438467
 C        -2.1558474017       -1.5565649256       -4.7405550075
 C        -3.5424989584       -0.9540940060       -4.0939727023
 O        -4.3218395166       -1.6274668534       -3.4759093415
 C        -3.8444966289        0.6136077036       -4.2382407523
 C        -4.2152647080        1.1635610297       -2.8153576803
 C        -2.9508298342        1.1822125349       -1.9784154937
 O        -1.9375970864        0.7743709219       -2.4614518099
 C        -2.9368840882        1.5750673198       -0.4833097866
 C        -3.6233643384        0.2544976046        0.1402433385
 O        -4.8067225039        0.0450425703        0.0979448110
 C        -2.7116891672       -0.8656434876        0.6119168188
 C        -3.5169838706       -2.1224490685        1.1615152653
 C        -4.1724319613       -2.9150491464       -0.0807634911
 O        -3.4305487172       -3.2703215644       -0.9528187566
 C        -5.6789041202       -3.3065812249       -0.0348916680
 C        -6.4081351470       -2.6272276714       -1.2952244873
 O        -6.2664915996       -3.2112760616       -2.3690893266
 C        -7.3338890465       -1.4360703045       -1.0784181327
 C        -8.8358343126       -1.8640185338       -0.8229057030
 C        -9.8487599693       -0.6744403681       -1.2375034482
 O        -9.6123632316        0.3314901373       -1.8701484701
 C       -11.3086350634       -0.9192338623       -0.7330000429
 C       -11.9618024863       -1.7651368536       -1.9323227677
 O       -11.3353320834       -2.7836269057       -2.2247514256
 C       -13.1838089322       -1.3551268540       -2.6923357775
 C       -11.5083106714       -1.8629447302        0.5232224423
 C       -11.8707636240        0.4622486240       -0.3761125594
 C        -5.6823539352       -4.7986070076       -0.0898042840
 C        -6.2494105621       -2.8458510268        1.3635511475
 C        -1.3790351106        1.7551816692       -0.0874998396
 C        -3.7969038797        2.7759182875        0.0134487116
 C        -1.4065530129       -2.4421653098       -3.7228797573
 C        -1.2057106868       -0.4205702242       -5.2968844476
 C         0.8906719442       -5.1448715098       -8.4443888260
 C        -1.1226105223       -5.3239116722       -9.9299209482
 C        -3.5737034791       -8.3153815638       -2.5470016390
 C        -3.9425039043       -9.2153387000       -4.8949533217
 C        -8.1773869298       -2.2191786562       -5.9133798187
 C        -9.2888246606       -4.3661281908       -6.6182313791
 C        -6.3726944555       -3.7844935644      -12.8577117401
 C        -4.5780592417       -5.5850032434      -12.6404837230
 C        -2.8848704228        1.0859036503      -16.3258324026
 C        -4.4935385931       -0.2481735173      -17.6839739333
 C        -0.3764258775       -2.2080244530      -21.3352840342
 C         2.0238692378       -2.1033910960      -20.4702584291
 C         2.1287337694        2.8363577248      -25.8179767930
 C         3.9916242911        3.4654994015      -24.3672600442
 C        -1.8526163546        6.6102397222      -19.6351134247
 C        -2.0108329185        7.5834203120      -21.9931471526
 H         0.3376824875       10.2341428984      -19.8435701679
 H        -1.3497826359        9.9145289039      -20.0885763079
 H        -0.1568055564        9.8783174920      -21.4666508745
 H         1.1740181363        7.1390737147      -22.5364419889
 H        -0.0245068309        6.1282165467      -23.4749090336
 H         2.3935365288        4.7432679172      -22.0291891238
 H         2.6565986900        5.6364348806      -23.4727113824
 H         3.3385706993        0.2114386227      -24.6656037162
 H         1.6422217720        0.2750224470      -25.0696622535
 H         3.1019065471       -0.9452775175      -22.7005807375
 H         2.1176680763       -1.7237324403      -23.8797042458
 H         1.6299901784       -0.3927466167      -18.1648403718
 H         0.5727802779       -1.7891444604      -18.3597057471
 H        -0.2592711244        0.9669410782      -17.5965609374
 H        -0.4301786788       -0.3788331968      -16.4518446256
 H        -4.5825823175       -2.7337202288      -15.9498619611
 H        -4.7484553371       -1.3331473370      -14.7732720998
 H        -2.3759750461       -3.1806277826      -14.2711049299
 H        -3.8586327132       -4.0681749793      -14.7006963849
 H        -6.9465169555       -2.4957682661      -10.4291039619
 H        -5.4084906588       -1.7605874566      -10.4473282001
 H        -6.0203622216       -1.6426147049       -8.1423942794
 H        -5.3134363799       -3.3768390648       -7.9455697805
 H        -7.2604854219       -6.1325381153       -6.8681216784
 H        -7.5241920373       -6.1426564799       -5.2699581146
 H        -4.6287254453       -6.0633159501       -5.9562351032
 H        -5.5848203633       -7.5638385726       -6.4536898820
 H        -1.9622182594       -8.2165725021       -5.8688519395
 H        -0.7276138588       -7.8378566864       -4.5268971247
 H         0.1758489004       -6.2305852642       -5.8811424445
 H        -1.2234434644       -5.2192979753       -5.7229724314
 H        -3.2648528589       -3.7248104296       -8.3888370209
 H        -2.2505071566       -2.5317672962       -9.2951057017
 H        -3.8606171359       -1.9465242201       -7.4963608994
 H        -2.3961278687       -1.0499109329       -7.3027735433
 H        -4.6396592783        0.7656203492       -4.8724044364
 H        -3.0200117170        1.2105926705       -4.7035113427
 H        -4.8842818912        0.4566894470       -2.2994206585
 H        -4.7007365185        2.0649587943       -2.7463651934
 H        -2.1544868361       -0.5089704700        1.5108831614
 H        -2.1929991513       -1.2636095276       -0.2125813134
 H        -4.1545080647       -1.9625033132        1.9992496833
 H        -2.8009910631       -2.8620738343        1.5502732966
 H        -7.3389705521       -0.6605626152       -1.8072001097
 H        -7.0015826659       -0.9001109433       -0.1563656151
 H        -9.0281815784       -2.0230771499        0.2347583928
 H        -9.1278954574       -2.8079134952       -1.2861612553
 H       -13.0217992083       -0.3215285108       -2.9808604006
 H       -14.1661999148       -1.5355465080       -2.2336557646
 H       -13.2012991031       -1.8192871128       -3.6591529644
 H       -11.1883847543       -2.8257494975        0.2779522881
 H       -12.5942269287       -1.7779692370        0.6491738401
 H       -11.0789686011       -1.5149958757        1.5026985955
 H       -11.7082332953        0.7589364130        0.6463893627
 H       -12.9709998383        0.5833488506       -0.4626437530
 H       -11.2804062893        1.2242262239       -1.0202027732
 H        -6.6756836920       -5.1609983166       -0.3581699766
 H        -5.2233769693       -5.2057295669        0.7443692091
 H        -5.0771203201       -5.1720994528       -0.9599593835
 H        -7.3421599379       -2.7916077553        1.2691020702
 H        -5.7984162478       -1.9318372647        1.6327484537
 H        -6.1353570640       -3.6709766230        2.1162433147
 H        -1.3168169047        2.4721173595        0.7474780420
 H        -0.9511327631        2.3184056093       -0.8878645840
 H        -0.9251712894        0.8102839086        0.1817433939
 H        -3.7243139452        2.8253929264        1.0753750568
 H        -4.8377533055        2.7198441607       -0.3087832513
 H        -3.5681675698        3.6660941137       -0.4860430259
 H        -0.3706856780       -2.5898548974       -4.0513407606
 H        -2.0270013955       -3.2591355270       -3.5377543216
 H        -1.2360210448       -1.9539543034       -2.8192044239
 H        -0.3870906045       -1.0563280398       -5.6501881880
 H        -0.8239461045        0.1786468273       -4.4279010397
 H        -1.6331593440        0.3151143836       -5.9955613930
 H         1.1414341068       -6.0483076275       -9.0434707321
 H         1.3689485280       -5.1044425353       -7.4340693301
 H         1.2559434888       -4.3135975352       -9.0220105612
 H        -2.1883466548       -5.5203051264       -9.8992271579
 H        -0.6122343867       -6.1286881110      -10.4240857962
 H        -0.8361076291       -4.4512947410      -10.4864893535
 H        -2.5817327147       -8.7743240483       -2.4667159792
 H        -4.4192216550       -9.0270784472       -2.3679494076
 H        -3.5654750950       -7.4749930466       -1.8066040027
 H        -4.8487526221       -9.6717369658       -4.5478780250
 H        -3.1841480880       -9.8936961546       -4.5781635833
 H        -3.9523488823       -9.0445100772       -5.9888997122
 H        -8.7552388632       -1.4453875608       -6.4319316929
 H        -7.1309967461       -1.7719583041       -5.7908682948
 H        -8.5414807146       -2.4445338928       -4.8900901554
 H        -9.2227334942       -5.2415901293       -7.1874357386
 H       -10.1570358267       -3.7066247953       -6.8687006041
 H        -9.5023846808       -4.7035417595       -5.6273595937
 H        -7.1834408090       -4.4226077203      -12.4188177387
 H        -6.4588330845       -4.0105747191      -13.9968025616
 H        -6.7245271879       -2.7829514985      -12.6865818683
 H        -3.4883530401       -5.6164609254      -12.9725975421
 H        -5.1778477013       -5.8971929144      -13.5102587850
 H        -4.7951370991       -6.1536623991      -11.8139992782
 H        -2.0097222833        1.4504134183      -15.8574608636
 H        -3.5960663049        1.2414192674      -15.4704820922
 H        -3.2489969603        1.8516834772      -17.1185543800
 H        -4.8594917933       -1.2795433958      -17.8301375715
 H        -4.4982081842        0.1504359650      -18.7470217852
 H        -5.2064650152        0.2190913949      -17.0065790908
 H         0.0780267799       -3.0812863791      -21.7429499499
 H        -0.9399869552       -1.7463617835      -22.1515811838
 H        -0.9608899224       -2.4735386152      -20.4306266157
 H         2.3430714880       -2.8026052055      -21.2341163517
 H         1.6912074535       -2.7726125478      -19.7170308212
 H         2.8949072636       -1.6521096286      -20.0430942597
 H         1.1642340719        2.4827489451      -25.9607446987
 H         2.6461941926        2.0527585907      -26.2511051280
 H         2.2029585749        3.6781607424      -26.3816880321
 H         4.0274026874        4.3610213525      -25.0746271131
 H         4.5255022066        2.6217297607      -24.7604192223
 H         4.4029041358        3.7377623370      -23.4150061138
 H        -2.5472974398        7.3786612670      -19.1512387403
 H        -1.2375905802        6.1767745680      -18.8923083602
 H        -2.3833777822        5.7785894275      -20.0709916860
 H        -1.4113811339        8.0501186881      -22.6998202540
 H        -2.7618697272        8.3273351952      -21.6291215197
 H        -2.5362622041        6.6954185445      -22.2845703173
 Na       -4.4004651356       -4.1620274546       -3.3233978489
 Na        0.0949052574        2.6843557876      -21.4830384391
