232

 C        -0.3177852666        9.6835957797      -20.4337450910
 C         0.0044356181        8.1688838526      -20.1059517337
 O         0.9041720341        7.7358690311      -19.4287770515
 C        -0.9064141786        7.0598067601      -20.7230115516
 C        -0.0821412664        5.9170864671      -21.3490963194
 O        -0.1979849663        4.8472432562      -20.8076441406
 C         0.6747419684        6.1479814875      -22.7182031826
 C         1.8645655022        5.2696406093      -22.9896397487
 C         1.4073272869        3.8824646032      -23.6389973829
 O         0.2628302730        3.5310236776      -23.6211561269
 C         2.5300778828        2.9614505879      -24.4489526199
 C         2.6045281924        1.6417397639      -23.6208851618
 O         2.6648114889        1.6805021743      -22.3898682377
 C         2.4460623891        0.2935921917      -24.2966419229
 C         2.1459656944       -0.8204932624      -23.3112154882
 C         1.0192749761       -0.4269812831      -22.3375895987
 O         0.2487011057        0.4605891901      -22.6189035776
 C         0.8692926245       -1.3087333802      -21.0237193931
 C         0.4517289458       -0.2730748914      -19.8508529893
 O         0.0953294240        0.8666496557      -20.0515240590
 C         0.6315979305       -0.7207759561      -18.3698438868
 C        -0.4020504977       -0.1031154000      -17.4982582027
 C        -1.8446928493       -0.3808452402      -17.9484391693
 O        -1.9993334003       -0.7236215750      -19.1044070721
 C        -3.0598685205       -0.2560328829      -16.9520565710
 C        -2.8081299943       -1.4515805927      -15.9130638044
 O        -1.7075797668       -1.8180096785      -15.6228480879
 C        -4.0261726825       -2.1137600197      -15.2029193702
 C        -3.5947680448       -3.1954031138      -14.2348001480
 C        -4.1902758782       -2.9149123308      -12.8059326991
 O        -3.7963536640       -2.0136088929      -12.1268507142
 C        -5.1171697584       -4.0192538016      -12.1073962296
 C        -5.2178046812       -3.8909656413      -10.5614411596
 O        -4.8572373758       -4.8015911136       -9.7720301251
 C        -5.9178225782       -2.6318161184      -10.0441117517
 C        -6.1695675021       -2.8029642782       -8.4575259225
 C        -7.5332571553       -3.3374355950       -8.1590582420
 O        -8.2917934688       -3.5401282557       -9.1023177614
 C        -7.8695209848       -3.5524113175       -6.6646212472
 C        -6.7149147309       -4.3457492484       -5.9288651931
 O        -5.9229624897       -3.5933760874       -5.4062898472
 C        -6.7749274651       -5.9249151750       -5.9536866737
 C        -5.4638873105       -6.6318003060       -5.7367367380
 C        -4.9930564054       -6.9532111589       -4.2136516820
 O        -5.4901310760       -6.4517495659       -3.2195860638
 C        -3.8231658181       -8.0095324761       -4.0251511141
 C        -2.6334702142       -6.8430230946       -4.4477355452
 O        -2.6930584066       -5.8139917406       -3.8705161789
 C        -1.4607969265       -7.3299280697       -5.3524547584
 C        -0.8404268360       -6.0656865599       -6.0519323273
 C        -1.1682502081       -6.1841343698       -7.5494739401
 O        -1.9741775190       -7.0151355269       -7.9950016273
 C        -0.5748597826       -5.0918410628       -8.5493069026
 C        -1.0539267333       -3.7269344842       -7.8748201727
 O        -0.4171825279       -3.2673457776       -6.9569102295
 C        -2.3759318714       -3.1130551417       -8.3499808579
 C        -2.8425392394       -2.0906924609       -7.3263371941
 C        -2.7267350572       -2.5293475473       -5.8702427462
 O        -3.0283150598       -3.6804870892       -5.6750963220
 C        -2.1904206024       -1.6217639941       -4.7532735389
 C        -3.4460917948       -0.9889585822       -4.1004118927
 O        -4.2599759810       -1.6789560957       -3.5745038566
 C        -3.8058359159        0.4969732439       -4.2333122938
 C        -4.2187863883        1.1216571507       -2.8690155689
 C        -2.9488596179        1.1866791271       -1.9687029701
 O        -1.8693157105        0.6925186179       -2.3965323179
 C        -2.9489170183        1.5512749598       -0.4217270667
 C        -3.5446329392        0.2252675934        0.1996362760
 O        -4.7239497950        0.0654251016        0.0146226816
 C        -2.6336297529       -0.9484449902        0.8250191157
 C        -3.4226488576       -2.1323182915        1.1894713051
 C        -4.0547712438       -2.8564769375        0.0036546392
 O        -3.4314892599       -3.2918250329       -0.8963158498
 C        -5.6647416591       -3.3188132473        0.0302198458
 C        -6.4268055177       -2.7774687788       -1.2200181723
 O        -6.3281097776       -3.2871886544       -2.3332737909
 C        -7.3075494315       -1.5145165410       -1.1633774808
 C        -8.8118503850       -1.7814015425       -0.9423288241
 C        -9.7759248440       -0.6947455274       -1.1207930989
 O        -9.3858426572        0.3221786418       -1.7395112496
 C       -11.3919181256       -0.9479581685       -0.7962178550
 C       -11.9122347594       -1.8310302313       -1.9787578031
 O       -11.3930817441       -2.8751741508       -2.2114312256
 C       -13.2131336379       -1.3690007349       -2.6553789278
 C       -11.5932618930       -1.8114389505        0.4813163986
 C       -11.9561656683        0.5003752160       -0.4966642936
 C        -5.6988581999       -4.8332027197       -0.1884144566
 C        -6.5216502548       -2.9394997621        1.3293454295
 C        -1.4945859934        1.8015832744       -0.0211000117
 C        -3.8295087186        2.7352620405       -0.0086352321
 C        -1.4811105661       -2.4087382111       -3.6701775296
 C        -1.2869366341       -0.5138764376       -5.3228733058
 C         0.9877989808       -5.2748560480       -8.5811795975
 C        -1.1631712311       -5.2458118805       -9.9310218148
 C        -3.4794817108       -8.2677770451       -2.5670844835
 C        -3.9034612709       -9.2775942768       -4.9033864267
 C        -8.1483251037       -2.1958165467       -5.9562010693
 C        -9.2361361463       -4.3371189746       -6.6370514455
 C        -6.4504666020       -3.8365095930      -12.8597494890
 C        -4.4272184394       -5.4415659627      -12.4681936551
 C        -3.0315348504        1.1854197630      -16.4347545424
 C        -4.4612594580       -0.2617458382      -17.6737403498
 C        -0.3111521758       -2.2510592791      -21.3153266671
 C         2.0732191177       -2.0505918997      -20.4963168400
 C         1.9805223149        2.6370500074      -25.8884134228
 C         4.0273886617        3.5411185564      -24.3899929712
 C        -1.8731788646        6.6487108945      -19.5806369286
 C        -1.7447342797        7.6566696729      -21.9678466169
 H         0.4929375477       10.3436695486      -20.1176715461
 H        -1.2227043313       10.0192940584      -19.8490790588
 H        -0.4246047047        9.7500667243      -21.5173780638
 H         0.9676774082        7.1677836101      -22.8311726131
 H        -0.1889715854        6.0091201518      -23.4588552426
 H         2.4774397909        5.0474913447      -22.1020815098
 H         2.5894597423        5.7449782311      -23.7057410423
 H         3.3430236041       -0.0683070996      -24.8961796318
 H         1.5677964360        0.2872546806      -24.9620977623
 H         3.0203226717       -1.1800604039      -22.7279271113
 H         1.7244526297       -1.7127648162      -23.8376457170
 H         1.6062050350       -0.4969182562      -18.0488928745
 H         0.4429445860       -1.8019106096      -18.3663403777
 H        -0.2757501409        0.9640518538      -17.6533239432
 H        -0.2785119479       -0.3031756085      -16.4635530227
 H        -4.8481830315       -2.4204363874      -15.8061993468
 H        -4.3498903551       -1.2392128506      -14.5704409627
 H        -2.4721155128       -3.0643469554      -14.1439963313
 H        -3.8091184314       -4.1265683057      -14.6902904055
 H        -6.7763694104       -2.2125574080      -10.6427993136
 H        -5.0945297733       -1.8033204350      -10.2668141144
 H        -6.0314203675       -1.9117587601       -7.8634255789
 H        -5.3967897734       -3.5535792016       -8.1268115326
 H        -7.1260451624       -6.0313560587       -6.9818083353
 H        -7.6131184868       -6.3344518915       -5.4221757776
 H        -4.7107181810       -6.0335160081       -6.1759319015
 H        -5.5651555414       -7.5971044635       -6.2882958001
 H        -1.8402839440       -7.9809509921       -6.1256103597
 H        -0.7945714165       -7.7671441764       -4.6467301514
 H         0.2962313501       -6.1211245306       -5.7655439042
 H        -1.2364528898       -5.0820684242       -5.7407747582
 H        -3.1534797610       -3.8271063107       -8.4529109823
 H        -2.2924245599       -2.5499754383       -9.2874809070
 H        -3.8960694112       -1.8799986980       -7.4780618186
 H        -2.2333810452       -1.1681630805       -7.3384846748
 H        -4.6761157355        0.6941850560       -4.9518821171
 H        -3.0394015587        1.1442514105       -4.6412255466
 H        -5.0388412761        0.6814089948       -2.2899808315
 H        -4.5073583467        2.1819132555       -3.0583731661
 H        -2.3172735056       -0.6426764060        1.8167730616
 H        -1.8872056346       -1.2740490704        0.1013623041
 H        -4.3132953534       -1.8405434393        1.8202247086
 H        -2.9136143363       -2.8743694750        1.7871602661
 H        -7.2147552238       -0.8587592720       -2.1423586096
 H        -6.9654796486       -0.7532105306       -0.3797237175
 H        -9.0197270575       -2.3280401180        0.0441500602
 H        -9.2304691960       -2.5052833143       -1.7031778023
 H       -13.2652396102       -0.3599779266       -2.9587552827
 H       -14.0484951038       -1.6601493825       -2.0163497697
 H       -13.3820551481       -1.9674595941       -3.6365651114
 H       -11.2512468275       -2.8717007052        0.3549544256
 H       -12.6543214454       -1.6689810791        0.7569368750
 H       -11.0786474030       -1.3532227175        1.2496406191
 H       -11.6907069512        1.0441924853        0.4138429708
 H       -13.0335684113        0.3825533469       -0.3340381867
 H       -11.7212293359        1.1257457527       -1.3255921842
 H        -6.7235673357       -5.0841034157       -0.3324914528
 H        -5.2341024058       -5.4199762110        0.6100632951
 H        -5.2282316434       -5.1652756989       -1.0920233009
 H        -7.5913190780       -2.9511527809        1.1941223779
 H        -6.0517360097       -2.0706924785        1.9542032537
 H        -6.3411801213       -3.8646198516        1.8704747993
 H        -1.3100161238        2.2870479791        0.9367402606
 H        -1.2762123106        2.5906500827       -0.7557363536
 H        -0.9615559847        0.9494966857       -0.2379322587
 H        -3.9465786058        2.7722882055        1.0438151014
 H        -4.7851339918        2.8206348967       -0.5197908582
 H        -3.3980154935        3.6678454077       -0.4025555736
 H        -0.5111982809       -2.5987732412       -3.9934545962
 H        -2.1423846849       -3.2465332808       -3.3472060850
 H        -1.2412692130       -1.7577327725       -2.7561186689
 H        -0.4493065793       -0.9888823766       -5.9354568693
 H        -0.8474395252        0.0170330028       -4.4711152356
 H        -1.9161174929        0.2927313510       -5.8000649792
 H         1.1682418840       -5.8703608547       -9.4718669104
 H         1.4069313106       -5.6306863352       -7.6575102005
 H         1.4935308773       -4.2771824356       -8.7618547947
 H        -2.1829695911       -5.5546104607       -9.8344543967
 H        -0.6595703807       -5.8827080166      -10.6176519639
 H        -1.0823433985       -4.2638624443      -10.3420030411
 H        -2.3657680059       -8.1601835561       -2.5635141780
 H        -3.8821416981       -9.2763048353       -2.1997083376
 H        -3.8118116263       -7.4658134698       -1.8921862024
 H        -4.7201004999       -9.8342189533       -4.5577148063
 H        -3.1252870070       -9.9540078022       -4.7817881019
 H        -4.0161868824       -8.9338500376       -5.9218850539
 H        -8.8499395393       -1.5715706298       -6.6506072354
 H        -7.2648534345       -1.5814542462       -5.8411290060
 H        -8.6289069763       -2.3821495314       -5.0226628376
 H        -9.0821546076       -5.3437652243       -7.0700223986
 H       -10.0216974342       -3.7567080639       -7.1319669990
 H        -9.6341174228       -4.5274406861       -5.6102423486
 H        -7.2504276736       -4.1140253426      -12.1945380546
 H        -6.6360353188       -4.4701258045      -13.7684235368
 H        -6.7430550611       -2.7526832082      -13.1294335314
 H        -3.2758601632       -5.3650436011      -12.4566509616
 H        -4.7585002536       -5.8117640011      -13.4029161019
 H        -4.8232574425       -5.9875917034      -11.5906440472
 H        -2.0564619175        1.4862533246      -16.1351914094
 H        -3.5551371428        1.4211861049      -15.4508698474
 H        -3.5024141652        1.9035098302      -17.1330854771
 H        -4.8877548534       -1.2056898330      -18.1600760738
 H        -4.3009680840        0.3795380171      -18.5403045129
 H        -5.2679429434        0.0728145265      -16.9956586579
 H         0.1197999538       -3.0514537325      -21.9163438262
 H        -1.1160748517       -1.7568392646      -21.9597243037
 H        -0.6640753228       -2.5868509861      -20.3274050042
 H         2.2617523788       -2.9254366179      -21.0793067275
 H         1.8939085782       -2.5049597216      -19.4716214886
 H         2.9641551762       -1.5160211345      -20.3528030542
 H         1.0979747412        2.0427567610      -25.8942784047
 H         2.5750185915        1.9750314367      -26.4853016135
 H         1.7112771049        3.4832557667      -26.4245810292
 H         3.9113367296        4.4484246771      -24.9494685609
 H         4.5341099504        2.7857259710      -25.0113864851
 H         4.6123377570        3.6959963229      -23.4803530897
 H        -2.5047969433        7.4790759820      -19.2528155469
 H        -1.3090435386        6.2646602889      -18.7057827051
 H        -2.4949528552        5.8709684742      -19.9884758524
 H        -0.9816641441        7.9952779975      -22.6919813168
 H        -2.3448617310        8.4891284853      -21.7143700298
 H        -2.4247955500        6.9540500184      -22.2494496815
 Na       -4.3995709485       -4.2126198259       -3.2546506114
 Na        0.2205623536        2.7695277658      -21.4100060314
