232

 C         0.1295789880        9.6148183700      -20.1943166042
 C         0.0759442323        8.0581240506      -20.0235464255
 O         0.8233770867        7.4986475028      -19.2168181511
 C        -0.9592570937        7.2098423582      -20.7787274618
 C        -0.1238799541        5.9649611448      -21.4583178482
 O        -0.2051149819        4.8389300433      -21.0869738306
 C         0.6262789544        6.2323835591      -22.7487750354
 C         1.6938338300        5.1981205212      -23.1398097432
 C         1.1840770398        3.8971289018      -23.7678682473
 O         0.0251885623        3.5241655957      -23.5096064328
 C         2.2349212457        3.0247033634      -24.4349258882
 C         2.3705412216        1.6987463926      -23.6900272009
 O         2.5170177051        1.7680223772      -22.4954779468
 C         2.2650726824        0.3491563284      -24.4208827063
 C         2.0236600053       -0.8178407395      -23.5018876525
 C         0.8703495129       -0.4851300045      -22.4384622076
 O        -0.0608821442        0.2238731172      -22.8302857609
 C         0.8272200964       -1.2266235860      -20.9480788550
 C         0.3700239972       -0.2873617542      -19.7595405884
 O         0.1752355770        0.8657099433      -19.9557544243
 C         0.5268256281       -0.7996700780      -18.4210872588
 C        -0.3765647723        0.0289314223      -17.4288992609
 C        -1.8608689092       -0.2945164387      -17.8753337628
 O        -2.1489765440       -0.5269598731      -19.0226653602
 C        -3.0900963284       -0.2423679895      -16.8814988736
 C        -2.8715316868       -1.3910557217      -15.8083298403
 O        -1.8096200287       -1.8613256160      -15.4637430817
 C        -4.1400099154       -1.5854157478      -14.9256550627
 C        -4.0650572372       -2.9271170712      -14.1436122601
 C        -4.3342713588       -2.9036345298      -12.6653722771
 O        -3.9992290891       -1.8772793964      -12.1273884874
 C        -4.9968836254       -4.1370746125      -11.9740743347
 C        -5.0729933674       -3.8351227885      -10.4337753682
 O        -4.5506851680       -4.5111348521       -9.5965866718
 C        -5.7847760422       -2.5306379692       -9.9212305125
 C        -6.1054539629       -2.6466889949       -8.4533225036
 C        -7.3982156167       -3.5626429110       -8.1864797185
 O        -8.0460311827       -4.1693555687       -9.0419541928
 C        -7.8962068303       -3.6316626735       -6.6702168929
 C        -6.8461469104       -4.3751205264       -5.7562925411
 O        -5.9839020786       -3.6889668785       -5.1961074527
 C        -6.7672602940       -5.8458812197       -5.6241313887
 C        -5.3105659710       -6.3171788701       -5.6566206399
 C        -4.8666481900       -6.7748585220       -4.1958349464
 O        -5.6183677708       -6.4312140598       -3.3094228604
 C        -3.5536538365       -7.5909436613       -3.9678213256
 C        -2.3347294311       -6.6524902467       -4.3166025166
 O        -2.3368343133       -5.5416815976       -3.8560881205
 C        -1.3416899652       -7.1277635908       -5.3387037939
 C        -0.8386187920       -5.9987885770       -6.2445771985
 C        -1.1026774641       -6.1605582266       -7.7667327938
 O        -1.8605727293       -7.0392788587       -8.1757532118
 C        -0.4149371219       -5.1312774894       -8.6780816317
 C        -0.9118385718       -3.6797168165       -8.0206336251
 O        -0.0574488834       -3.0216121985       -7.4516173847
 C        -2.2980570103       -3.0650426320       -8.3668738110
 C        -2.6693207153       -1.9592421864       -7.4083831412
 C        -2.7394243366       -2.4750613939       -5.8821685451
 O        -3.1348218004       -3.6220459293       -5.6774275095
 C        -2.1765862209       -1.5653742639       -4.7338278709
 C        -3.4670115097       -0.9776737038       -4.1592484440
 O        -4.2067157095       -1.6963470308       -3.6030752250
 C        -3.8574763073        0.5571904059       -4.3092365604
 C        -3.9126750500        1.0245225344       -2.7935674647
 C        -2.6909379612        0.9162923836       -1.9137110758
 O        -1.5550722827        0.5797200615       -2.2707053312
 C        -2.9501034862        1.2390307942       -0.4122261568
 C        -3.6137360321        0.0250635781        0.1623822288
 O        -4.8085713198       -0.1492606983       -0.0214380815
 C        -2.8180214046       -1.1246423979        0.8104337858
 C        -3.7199104599       -2.2826281156        1.2379141307
 C        -4.2588544405       -2.9030402291        0.0086663956
 O        -3.6422306293       -3.0364553985       -1.0278699764
 C        -5.8242517400       -3.4748946758        0.1069737867
 C        -6.5363439249       -2.9526391363       -1.2048491724
 O        -6.3537195773       -3.5155534035       -2.2978833063
 C        -7.4005304892       -1.7193353974       -1.0877397657
 C        -8.8979465117       -2.0082942284       -1.2571523295
 C        -9.7164422603       -0.7629413514       -1.1053363958
 O        -9.3338074874        0.4236832282       -1.1033985160
 C       -11.2091370051       -0.8981415631       -0.9282598827
 C       -11.9293356374       -1.9545822595       -2.0475049192
 O       -11.4208548771       -2.9785925877       -2.3749189691
 C       -13.3168954993       -1.6321696630       -2.6782103395
 C       -11.4053561389       -1.4671381806        0.4885023397
 C       -11.8983820678        0.5561194065       -1.0094085102
 C        -5.5850076470       -5.0428056765       -0.0087139801
 C        -6.4615580409       -3.1750152931        1.4906720412
 C        -1.6965557367        1.7094246698        0.3277474779
 C        -3.9776830710        2.3867895375       -0.3766886383
 C        -1.3494181386       -2.4805566355       -3.7720127657
 C        -1.2585436765       -0.4280290983       -5.2113371458
 C         1.1263994697       -5.0672999232       -8.7910393489
 C        -1.0475976618       -5.2919493060      -10.2080674936
 C        -3.6274172879       -8.1089606943       -2.5590934231
 C        -3.6557541756       -8.8101252088       -4.9462258990
 C        -8.1605592649       -2.1818961132       -6.1733595197
 C        -9.2445413340       -4.3576761943       -6.4950548598
 C        -6.5109070771       -4.1029151227      -12.5531306778
 C        -4.3214814406       -5.4905228572      -12.4242646684
 C        -3.2869363356        1.0276117508      -16.0030157623
 C        -4.4048138239       -0.4358305582      -17.7413462634
 C        -0.2860188135       -2.3446080777      -21.0083965309
 C         2.1376941813       -1.9460503922      -20.5887608511
 C         1.5850448039        2.8956978235      -25.9739603171
 C         3.6937583999        3.4565208996      -24.5735337707
 C        -1.9461144818        6.5842146134      -19.8197505123
 C        -1.7294640951        7.9420146425      -21.8714789447
 H         1.0122257517        9.9043208426      -19.7130199597
 H        -0.6298771292       10.2148340566      -19.7281470233
 H         0.3178346009        9.8242107794      -21.2300313625
 H         1.0653488199        7.2987679493      -22.7953145370
 H        -0.1748413950        6.4322679616      -23.4754005702
 H         2.3264419186        4.8662067627      -22.3916782512
 H         2.3425161659        5.7006753718      -23.8803942933
 H         3.0221995428        0.0732563678      -25.0697061192
 H         1.3514257000        0.3804974483      -25.0739190033
 H         2.9013965982       -1.2126686218      -23.0586121938
 H         1.5468973323       -1.5844573844      -24.0356936569
 H         1.5391347111       -0.6421367588      -18.1339477710
 H         0.2732797313       -1.8949390683      -18.3352222212
 H        -0.2968515519        1.1290819033      -17.5029247917
 H        -0.1404856167       -0.2492461335      -16.3618098059
 H        -5.0833319656       -1.3734563110      -15.4423866952
 H        -4.0430652100       -0.7647248635      -14.1187828063
 H        -2.9976551418       -3.2204130503      -14.3057587048
 H        -4.6849413262       -3.5816728105      -14.7272447984
 H        -6.7274642051       -2.4641082013      -10.4152088799
 H        -5.3510022830       -1.6250861064      -10.2079129726
 H        -6.3275483187       -1.6975308388       -7.9198761687
 H        -5.1790789747       -3.1037943846       -7.8998893301
 H        -7.3564205613       -6.1875895601       -6.4619629414
 H        -7.3250070067       -6.1780915193       -4.7536345321
 H        -4.6837436409       -5.5537459901       -6.1750935502
 H        -5.3139241791       -7.1938361770       -6.4080158517
 H        -1.7235150745       -7.9232190850       -6.0538624406
 H        -0.5724405003       -7.5428106931       -4.6587931435
 H         0.2349975179       -6.0753292865       -6.1782970869
 H        -1.2154833594       -5.0949568275       -5.7784881361
 H        -3.0949658547       -3.8666460708       -8.4101811593
 H        -2.2989054742       -2.4997628624       -9.3274659157
 H        -3.6181148404       -1.6596163807       -7.5972357362
 H        -1.9718891933       -1.0959659530       -7.5925459857
 H        -4.8052924550        0.7363873933       -4.6864468602
 H        -3.1950134895        1.2044361695       -4.8936520651
 H        -4.6934179236        0.4846524845       -2.2107657114
 H        -4.1912783503        2.0182480821       -2.7928617093
 H        -2.4558874817       -0.8615777008        1.8488403043
 H        -2.0656760817       -1.5458197942        0.1896554632
 H        -4.5102452401       -2.0458052109        1.9189024433
 H        -3.1163363784       -3.0475662477        1.6984233919
 H        -7.1755449545       -1.0113665267       -1.8165174164
 H        -7.2259964815       -1.1105708809       -0.2743638584
 H        -9.2239582649       -2.7303269807       -0.5738691746
 H        -9.1706212091       -2.4445735708       -2.1809717241
 H       -13.0859002365       -1.0241105889       -3.4951118514
 H       -14.0228197833       -1.0974628820       -2.0647684025
 H       -13.7963427058       -2.5881760429       -3.0429776612
 H       -11.0194666452       -2.4612352984        0.6909026489
 H       -12.5098226712       -1.3872833649        0.6482358647
 H       -10.9381769788       -0.7592429634        1.1586721156
 H       -11.3866266519        1.1409881645       -0.2282405867
 H       -12.9213722699        0.7099258740       -0.6710110235
 H       -11.5935031804        0.9981478019       -1.9826931926
 H        -6.5184252239       -5.6863314155       -0.0380060505
 H        -5.1107919864       -5.3949418322        0.9110682810
 H        -4.8881148404       -5.3281796685       -0.8579820730
 H        -7.0527276714       -3.9933293953        1.7511727073
 H        -7.1539334503       -2.2828467855        1.4067154042
 H        -5.7339341368       -2.9398547860        2.2238858333
 H        -1.8187789292        1.1688305169        1.3131762629
 H        -1.6773638344        2.8062706943        0.6172270699
 H        -0.8632400062        1.5020905580       -0.2955311618
 H        -3.8987232480        2.9317613805        0.5529394684
 H        -5.0595990417        2.0688897111       -0.4140297450
 H        -3.8836695753        3.1787087534       -1.1204828406
 H        -0.6214327842       -3.0718619745       -4.2699644290
 H        -2.1155622668       -3.0538203931       -3.2973993212
 H        -0.8467833204       -1.8822906010       -3.0304218358
 H        -0.4543121163       -0.9459072122       -5.6725493723
 H        -0.9340416592        0.1910814523       -4.4218533555
 H        -1.7382860461        0.1422569647       -5.9562592294
 H         1.3927516456       -5.5105361954       -9.7192973581
 H         1.5016023886       -5.4774899913       -7.8736760480
 H         1.4927434403       -4.0508637464       -8.7356175046
 H        -2.1150292021       -4.9675509150      -10.1432327445
 H        -1.1491292105       -6.3606039511      -10.4658527290
 H        -0.5014119890       -4.7355178686      -11.0026742860
 H        -2.7118419880       -8.1973113715       -1.9997536916
 H        -4.1660752400       -9.0785235018       -2.5079393757
 H        -4.2480032233       -7.4145293702       -2.0584523477
 H        -4.5650926728       -9.3955234503       -4.8188856912
 H        -2.8545879755       -9.5642925005       -4.8331977681
 H        -3.5157786316       -8.2879642061       -5.9667812523
 H        -8.9307326340       -1.6044138907       -6.7613451462
 H        -7.2147319539       -1.5995872017       -6.1480857288
 H        -8.6213679144       -2.1530771407       -5.2002859772
 H        -9.1917395389       -5.3316191957       -6.8934847908
 H       -10.0862193822       -3.8691119648       -7.0105655339
 H        -9.5090621704       -4.4324676738       -5.4753080546
 H        -7.2226674965       -4.5587544218      -11.9575634272
 H        -6.5333362310       -4.6203206940      -13.5441072192
 H        -6.8706050055       -3.1264287826      -12.8543576648
 H        -3.4770325754       -5.6186423007      -11.6489306824
 H        -3.8975812779       -5.2678690577      -13.3549911904
 H        -5.0495626452       -6.2431326840      -12.4471348622
 H        -2.8285361258        1.0654545987      -15.0935995119
 H        -4.3920032512        1.2870119154      -15.8566865548
 H        -3.1860551571        1.9067208236      -16.6357860897
 H        -4.6137410523       -1.4933715816      -18.0198274433
 H        -4.4670888584        0.0803643569      -18.7218369381
 H        -5.2814595922       -0.1359467813      -17.1777376098
 H        -0.5879444001       -2.5579610440      -21.9424040369
 H        -1.1135134588       -1.8237238379      -20.4685398100
 H        -0.0368931297       -3.0956350948      -20.3013427645
 H         2.4969632778       -2.7688947544      -21.1985048397
 H         1.9815259092       -2.3644124250      -19.5660058038
 H         2.9295628797       -1.2596868692      -20.3722545425
 H         0.4997455388        2.6758836138      -25.9707402764
 H         1.8385756413        2.0422292441      -26.6433599527
 H         1.6612742973        3.7899897838      -26.5166462166
 H         3.6373719538        4.3361916886      -25.2732246198
 H         4.3179834349        2.6593811313      -24.9758660847
 H         4.1035043466        3.7455844585      -23.6348287174
 H        -2.5457063566        7.3981121454      -19.3107066624
 H        -1.5453636651        5.9537181731      -19.0411858745
 H        -2.6962078418        6.1317691953      -20.4316779997
 H        -0.9359560797        8.5363396429      -22.4475579838
 H        -2.4929726783        8.6020912380      -21.3723850592
 H        -2.3723924113        7.3370681748      -22.4516492498
 Na       -4.2407105546       -4.0309074531       -3.4020070833
 Na        0.6660368015        2.3584929460      -21.4881675159
