232

 C         0.3383563560        9.2862372616      -20.1510880983
 C         0.1711767466        7.7746146906      -19.9624810809
 O         0.8290621375        7.1919270187      -19.1784857701
 C        -0.9346575869        7.1235544334      -20.9026651327
 C        -0.2251093753        5.9535784946      -21.6134578864
 O        -0.0077261816        4.8840722203      -21.0331821040
 C         0.5756460018        6.2907196834      -22.8254076751
 C         1.6632052518        5.3442412634      -23.1892012896
 C         1.1249118561        4.0576121033      -23.7961433282
 O         0.0067718715        3.6787012360      -23.5628002232
 C         2.0343100982        3.0398793415      -24.6406383555
 C         2.1592593632        1.6895332071      -23.8177437045
 O         2.6965143886        1.7620641634      -22.7024014450
 C         1.8458698186        0.3289758035      -24.3957765684
 C         1.9279346668       -0.7727476153      -23.2822531800
 C         0.7160284598       -0.5919457700      -22.2954039725
 O        -0.2462199023        0.0645870743      -22.5874206477
 C         0.7490331770       -1.2938252232      -20.9471175300
 C         0.4802623102       -0.1837244861      -19.7701782652
 O         0.5237572393        1.0551219471      -19.9176505103
 C         0.4489471958       -0.7152079750      -18.2805858241
 C        -0.5050667229       -0.1398000457      -17.2870465114
 C        -1.9500147204       -0.3337486038      -17.8492486273
 O        -2.1674773093       -0.4575767085      -19.0380310924
 C        -3.1467658330       -0.1829385297      -16.8860859980
 C        -3.0821581708       -1.3215751144      -15.7918050566
 O        -2.0321662298       -1.9439960605      -15.6588155825
 C        -4.1434831166       -1.4653011830      -14.6751255041
 C        -4.2288510296       -2.9276746862      -14.0751707159
 C        -4.5073839177       -2.8997078782      -12.5649070138
 O        -4.1798025008       -1.8651052111      -11.9673585911
 C        -5.1467844140       -4.1272031371      -11.9029870617
 C        -5.0972230860       -3.8851565857      -10.2653510693
 O        -4.3361825493       -4.6071261169       -9.6687722237
 C        -5.8947060758       -2.6888797137       -9.8439758251
 C        -6.2918085202       -2.5882598343       -8.3384557331
 C        -7.3996656508       -3.6913706583       -8.0589238055
 O        -7.6820956000       -4.5494837238       -8.8462311716
 C        -7.9884221377       -3.5888033129       -6.6223352133
 C        -6.9032180441       -4.1906736751       -5.6730326023
 O        -6.0289504076       -3.5174041781       -5.1633607329
 C        -6.7890788354       -5.8061010126       -5.7685557860
 C        -5.3338874399       -6.3330967683       -5.6295419013
 C        -4.8924581111       -6.6783990976       -4.2628989732
 O        -5.5523818681       -6.3156867757       -3.3038088822
 C        -3.4974925985       -7.5212231543       -4.1171043076
 C        -2.3151409299       -6.5692078602       -4.4130272149
 O        -2.1836341976       -5.4818160382       -3.7973244765
 C        -1.1526752468       -6.9730879719       -5.2726526347
 C        -0.6348848267       -5.7995151361       -6.2773871394
 C        -1.0615613276       -6.0054270693       -7.7430119203
 O        -1.5973201439       -6.9756933024       -8.1563780270
 C        -0.4438828545       -5.0329876313       -8.7770790688
 C        -0.7397948363       -3.6221419479       -8.2572301342
 O         0.1044666837       -2.8628630403       -7.7802691351
 C        -2.2195284512       -3.1612078466       -8.4090050033
 C        -2.4871499184       -1.9552693031       -7.4322922162
 C        -2.6065184217       -2.3745707787       -5.9510182836
 O        -3.2442316221       -3.3720394279       -5.7174307864
 C        -2.0474771697       -1.5160028791       -4.8286748375
 C        -3.3556530677       -0.8964727514       -4.1447934518
 O        -4.1869716665       -1.6565733394       -3.6181055409
 C        -3.5693054542        0.5916045444       -4.1175760418
 C        -3.8948663454        1.1655127050       -2.8103585141
 C        -2.6814441450        1.0127537943       -1.8141313047
 O        -1.6564908974        0.5630410471       -2.2060488229
 C        -3.0677985321        1.2617430381       -0.3282242921
 C        -3.6948457399       -0.1156576025        0.1171091730
 O        -4.8617915808       -0.3446305938       -0.0740139542
 C        -2.7982243207       -1.1600228220        0.6738929661
 C        -3.6501892036       -2.3954569654        1.1721485068
 C        -4.4865925283       -3.0312420841       -0.0245939295
 O        -3.8526032188       -2.9570417035       -1.1020076345
 C        -5.8364875239       -3.7027778525        0.1141293650
 C        -6.5201291928       -3.1841333052       -1.1726284841
 O        -6.3717069307       -3.6922856381       -2.2515327347
 C        -7.3314176405       -1.9173378283       -1.0960648685
 C        -8.8242310094       -2.0995924071       -1.4414876110
 C        -9.7043430665       -0.7934632307       -1.1315018310
 O        -9.1276074670        0.2136305420       -0.9291355228
 C       -11.2679282921       -0.7751071695       -1.0457003409
 C       -11.9325955478       -1.9177262168       -1.9664402888
 O       -11.1581474324       -2.8529336782       -2.2615067183
 C       -13.3185666758       -1.7352516885       -2.5763970519
 C       -11.7956274799       -1.3904344621        0.3827949358
 C       -11.9579954555        0.5956151896       -1.2631836113
 C        -5.5221822375       -5.2072290099       -0.0100722866
 C        -6.6391762913       -3.4308675808        1.4915392849
 C        -1.7734167085        1.4708439256        0.4239770143
 C        -4.0314069568        2.4387730868       -0.1628353946
 C        -1.3187382240       -2.3608826733       -3.7259065639
 C        -0.9843319190       -0.5088517954       -5.2957415663
 C         1.1589222226       -5.3052476534       -8.7767378647
 C        -0.9369847667       -5.2919111961      -10.2437453573
 C        -3.3245169396       -7.8174808168       -2.5475657787
 C        -3.6136633041       -8.8097090057       -4.9584099712
 C        -8.1598551955       -2.1034908502       -6.0679256572
 C        -9.2681627155       -4.4020340254       -6.6301622594
 C        -6.5663599285       -4.3287753097      -12.3989763679
 C        -4.2850778497       -5.4782123273      -12.1213526539
 C        -3.0890464961        1.2530634992      -16.1375851510
 C        -4.5445420046       -0.4467879778      -17.6851340043
 C        -0.3613673220       -2.3728367903      -21.0106615957
 C         2.2159982334       -1.9332436324      -20.6768928968
 C         1.4394831278        2.8763373866      -25.9881394984
 C         3.4906743350        3.6967970270      -24.8030653202
 C        -1.9821344609        6.4643954491      -19.8658907430
 C        -1.6178570042        8.0968375132      -21.8444964105
 H         0.8151695371        9.7823069977      -19.2826857421
 H        -0.6888292844        9.6284653953      -20.1175296559
 H         0.8105864303        9.5753586594      -21.0950836847
 H         0.9843724788        7.2410784092      -22.5998958034
 H        -0.0252256827        6.6066914990      -23.6730040981
 H         2.3080265559        4.9416140306      -22.3169343291
 H         2.3147804947        5.8041991315      -23.9129978475
 H         2.5160735923        0.0878390138      -25.3032467568
 H         0.8223703939        0.2873168455      -24.7877245854
 H         2.8053629132       -0.6092772347      -22.6284013802
 H         1.9274613346       -1.8448961656      -23.6520723645
 H         1.4452048755       -0.5057880802      -17.8129469437
 H         0.3049552522       -1.7539077271      -18.2848415209
 H        -0.3793014001        0.9063402216      -17.0461192134
 H        -0.3141998089       -0.6420375772      -16.3691053123
 H        -5.0894958004       -0.9997397361      -15.0511026705
 H        -3.8846576003       -0.8799357582      -13.7851768846
 H        -3.2581325324       -3.3915985717      -14.2252161438
 H        -4.9968554201       -3.4475908060      -14.7190762198
 H        -6.8590593863       -2.5817094336      -10.4802211944
 H        -5.3642091940       -1.7226680817      -10.2258874720
 H        -6.7717252932       -1.6111092070       -8.1218548907
 H        -5.5441042290       -2.6828530865       -7.5876339238
 H        -7.1599960513       -6.0306084072       -6.7680650308
 H        -7.5353103264       -6.2623101134       -5.1477289383
 H        -4.6944089275       -5.6152430522       -6.1466281640
 H        -5.1965798611       -7.1642000013       -6.2741418244
 H        -1.3779402951       -7.8501742985       -5.8204441383
 H        -0.3140569261       -7.2347286596       -4.5788267279
 H         0.4710004553       -5.9192156379       -6.2722482618
 H        -1.0326170784       -4.9195695818       -5.7189794145
 H        -2.9059398463       -3.9732595999       -8.1945881149
 H        -2.4070312684       -2.8350332219       -9.4231051922
 H        -3.4115660111       -1.2796723345       -7.7030709921
 H        -1.6074417733       -1.3282247395       -7.4617528009
 H        -4.4405352139        0.7539384616       -4.8561854861
 H        -2.6747304395        1.1231712184       -4.5341605752
 H        -4.7163045215        0.6400622454       -2.3864653785
 H        -4.1402015486        2.2752024512       -2.8737722796
 H        -2.1912009248       -0.8712227401        1.5048501797
 H        -2.1491161435       -1.4421736749       -0.2206192746
 H        -4.3667557681       -2.0553942983        1.9305426847
 H        -2.9830292244       -3.1691771423        1.6390248301
 H        -6.9019702257       -1.0260616963       -1.6693618198
 H        -7.2461393873       -1.4532842305       -0.0291235869
 H        -9.1235742382       -3.0898077372       -0.9649562488
 H        -8.9264669603       -2.3693789340       -2.5385021792
 H       -13.2542880046       -1.7038157259       -3.7188579628
 H       -13.8251129842       -0.7760929024       -2.3182323598
 H       -13.9026208395       -2.5535242906       -2.2929644640
 H       -11.4115198437       -2.4001206812        0.3114867674
 H       -12.8535056978       -1.4264632983        0.5180915683
 H       -11.2484952641       -0.8699462694        1.2181582340
 H       -11.7433987581        1.3743669854       -0.5259970007
 H       -13.0113215878        0.4072116170       -1.0425090381
 H       -11.8147030458        0.9324824163       -2.2984251207
 H        -6.4640272199       -5.7006936841        0.1306781268
 H        -4.8905376707       -5.7345815149        0.6876026730
 H        -5.2025314589       -5.3462898178       -1.0063154412
 H        -7.7331033642       -3.3380620845        1.2011388538
 H        -6.4339982590       -2.4955274513        1.8948560048
 H        -6.3326259911       -4.1831658833        2.2592334167
 H        -2.0418220962        1.4960470951        1.4259375008
 H        -1.2972253723        2.3126199850        0.0477938418
 H        -1.1015130295        0.6853779504        0.0252621571
 H        -4.2955148023        2.7063470600        0.8671196049
 H        -4.9749274723        2.1519491240       -0.5286841138
 H        -3.7310456317        3.4004778578       -0.5315256497
 H        -0.5658144790       -2.9340032787       -4.4044761748
 H        -1.9126729370       -3.1339564709       -3.2478403010
 H        -0.8374795672       -1.6846125943       -3.0235385161
 H        -0.0874889164       -1.0309688308       -5.6982093658
 H        -0.7615111687        0.1652373175       -4.4115340829
 H        -1.4295023208        0.0699415211       -6.1464974588
 H         1.3871032170       -6.3534273773       -9.1268847064
 H         1.4865488511       -5.0897819523       -7.7486375899
 H         1.5973809409       -4.5691920373       -9.4445451115
 H        -1.9417046633       -4.9636957001      -10.3936970877
 H        -0.9207429248       -6.3396847856      -10.4955988363
 H        -0.3041316101       -4.6883428984      -10.8642537936
 H        -2.5320858110       -8.6049260822       -2.4085709613
 H        -4.2058576278       -8.1595113793       -1.9831204649
 H        -2.9231601745       -6.8534581801       -2.0590626498
 H        -4.6109714640       -9.2397450357       -4.7337489199
 H        -2.8320748062       -9.5396939328       -4.7699905352
 H        -3.5723513356       -8.5855608699       -5.9742292635
 H        -8.6821412930       -1.4088233120       -6.6629212423
 H        -7.2177743969       -1.7035285767       -5.6535429425
 H        -8.9055259962       -2.1266465365       -5.2048173170
 H        -9.2485361124       -5.2643572824       -7.3309587236
 H       -10.1290118127       -3.8605600578       -6.9962303138
 H        -9.4457429303       -4.7153722045       -5.5870415632
 H        -7.1406580533       -5.2681527063      -12.0357282904
 H        -6.5627361841       -4.3446810133      -13.4910947553
 H        -7.1749049381       -3.4454616401      -12.2384977745
 H        -3.4020272433       -5.3787252040      -11.5505093490
 H        -4.1587670788       -5.3517706596      -13.2527148027
 H        -4.9196376016       -6.3666449982      -11.9548147620
 H        -2.0076721477        1.3166684824      -15.7232680292
 H        -3.7796593589        1.3544010424      -15.3217964218
 H        -3.3571891998        2.1533873495      -16.7266436760
 H        -4.9111195601       -1.4715095204      -17.6141536511
 H        -4.4049620566       -0.2674766741      -18.8021113877
 H        -5.4187805009        0.2172432065      -17.4130599316
 H        -0.2202305035       -2.7832532302      -22.0592244814
 H        -1.2729143569       -1.8501307875      -20.9663540595
 H        -0.3339949608       -3.0403546633      -20.1440222251
 H         2.4565228748       -2.5983490117      -21.4978378508
 H         2.3475823548       -2.4617557603      -19.7819379592
 H         2.9785741569       -1.1310577702      -20.6953121338
 H         0.5015666887        2.3675046779      -25.9834593905
 H         2.0647335301        2.3289877153      -26.6425031669
 H         1.2838526810        3.8022490395      -26.5251159019
 H         3.6378104290        4.6096688358      -25.3586475806
 H         4.2034174910        2.9575230768      -25.2264995433
 H         3.7350538121        3.7999867512      -23.7172887479
 H        -2.4917643476        7.2011495418      -19.2883654866
 H        -1.4639701051        5.8214561088      -19.1580806756
 H        -2.7982818973        5.9197446656      -20.3800023621
 H        -1.0267128896        8.4942638133      -22.6145395990
 H        -2.1150577579        8.8819845134      -21.2963530542
 H        -2.4144474371        7.4390956628      -22.3374535065
 Na       -4.2972895501       -3.9919166641       -3.4055608015
 Na        0.4267616915        2.5878566229      -21.6542485432
