232

 C         0.4789951501        9.2900560625      -20.0753720119
 C         0.1431452197        7.7132721966      -19.9463496084
 O         0.7825662928        6.9723149967      -19.2084103635
 C        -0.9306965921        7.0170648554      -20.8915137899
 C        -0.0563286345        5.8894062329      -21.5125308322
 O        -0.0224848192        4.8059590626      -20.9714886503
 C         0.6130370154        6.2667427999      -22.8973672387
 C         1.7081715348        5.3809438495      -23.3837287098
 C         1.1474209166        4.0483176709      -23.8534283677
 O        -0.0645402216        3.8387719632      -23.6776154226
 C         2.0527441011        3.0106530870      -24.7129869371
 C         2.2559517684        1.6814007269      -23.8732279459
 O         2.5798171509        1.7827707232      -22.7094377439
 C         1.6521704289        0.3787470134      -24.3812654434
 C         1.8217651716       -0.6096864807      -23.2136249548
 C         0.7029794506       -0.4409098117      -22.1481446489
 O        -0.3048887819        0.1952491258      -22.4941652929
 C         0.7939978403       -1.2357882611      -20.8955175737
 C         0.5758029143       -0.2012740626      -19.6655052998
 O         0.6066764042        0.9638924281      -19.8887740545
 C         0.5034659460       -0.8037157199      -18.2821931033
 C        -0.5538571155       -0.1583377157      -17.3834526751
 C        -2.0393770374       -0.2719409338      -17.9050783180
 O        -2.2176254954       -0.4813193303      -19.0549219170
 C        -3.1176416296       -0.1738410444      -16.7837248722
 C        -3.0438791711       -1.2645465197      -15.7382689497
 O        -2.1650165386       -2.0925929084      -15.8157265687
 C        -4.2085862275       -1.3444260760      -14.7219195645
 C        -4.2701238636       -2.8229186229      -14.0743972865
 C        -4.5424543657       -2.8184040654      -12.6009450483
 O        -4.2433569293       -1.9013702385      -11.8516569623
 C        -5.2468238667       -4.1891003556      -11.9005636341
 C        -5.1278948258       -3.9422339493      -10.2554494340
 O        -4.4354354693       -4.5479839700       -9.5171641379
 C        -5.8557921625       -2.6647902254       -9.8259090120
 C        -6.2986313682       -2.6172590934       -8.3411705203
 C        -7.3496843242       -3.6706001902       -7.9036703470
 O        -7.5462386731       -4.6719848283       -8.6233682051
 C        -8.0397223132       -3.6254584088       -6.5168281191
 C        -6.8459340247       -4.2697233610       -5.7632844680
 O        -6.0634761247       -3.5556047388       -5.1199417991
 C        -6.7683960620       -5.7416083450       -5.8778112048
 C        -5.3094905428       -6.3115960970       -5.7710022593
 C        -4.8562357938       -6.6727122682       -4.2192066946
 O        -5.4272404860       -6.2484092007       -3.2652508889
 C        -3.4826908660       -7.4901686283       -4.0700416360
 C        -2.3112145538       -6.4943786047       -4.4622315898
 O        -2.3112596303       -5.4078394539       -3.8785676456
 C        -1.0899565022       -6.9008923734       -5.3427930120
 C        -0.6085537127       -5.7475203772       -6.2263125529
 C        -0.8796865334       -6.0411927713       -7.7231916903
 O        -1.5725405270       -6.9829358192       -8.0610278149
 C        -0.3117139260       -4.9700703848       -8.7941631549
 C        -0.6660430377       -3.5785752220       -8.3444549208
 O         0.2015458733       -2.7819754528       -7.9209480446
 C        -2.1326282427       -3.1762929059       -8.4042084448
 C        -2.2758144782       -1.9507787522       -7.4670293307
 C        -2.6544834521       -2.4113804194       -6.0068949536
 O        -3.2749126285       -3.4069205826       -5.7763906476
 C        -1.9151592894       -1.4630259210       -4.8133627844
 C        -3.2167320235       -0.8058014054       -4.1641172709
 O        -4.0160558212       -1.5432677586       -3.6853215780
 C        -3.5725742072        0.7693724932       -4.2044445748
 C        -3.9497186997        1.3116456803       -2.8504493313
 C        -2.8553270348        1.0248987915       -1.8088796256
 O        -1.7785662851        0.5973920722       -2.1468169191
 C        -3.0683937002        1.2752791296       -0.2606329657
 C        -3.7095509853       -0.1641818851        0.1252289509
 O        -4.8886921600       -0.2991059585       -0.1322264746
 C        -2.8365871045       -1.3005261024        0.7252301795
 C        -3.5900286720       -2.5026741402        1.2168484524
 C        -4.4412227755       -3.0455920932       -0.0298979674
 O        -3.8981393284       -3.0819623276       -1.1255830110
 C        -5.8340437861       -3.7758983962        0.0260485425
 C        -6.6238171221       -3.2522184141       -1.2078177472
 O        -6.4663279771       -3.8162593775       -2.2773615244
 C        -7.4339017999       -1.9677835905       -1.0023851927
 C        -8.9208904700       -2.0651508678       -1.4026138317
 C        -9.6930469814       -0.8374538004       -1.0497920909
 O        -9.1021343828        0.2294126912       -0.8638980096
 C       -11.2899766454       -0.8622492443       -1.0702357224
 C       -11.8415264891       -1.8534969596       -2.1139487949
 O       -11.2398245161       -2.8852379141       -2.3114093442
 C       -13.2712239335       -1.8226059307       -2.5430631371
 C       -11.8026995764       -1.3671533200        0.3440288295
 C       -11.8183014849        0.5845594506       -1.3559385169
 C        -5.5968220435       -5.3211160311       -0.0729946808
 C        -6.5773263814       -3.5282800871        1.4018267075
 C        -1.6873754561        1.5478357658        0.5509848067
 C        -4.0014143285        2.4040963900        0.0691066429
 C        -1.2899228739       -2.3503187463       -3.6939026921
 C        -0.8513889511       -0.5598396621       -5.3536690352
 C         1.2070281993       -5.3582524636       -8.7844513623
 C        -0.9139811428       -5.2748488019      -10.1465600853
 C        -3.1513983828       -7.7645535513       -2.6014673126
 C        -3.5298170019       -8.7172273850       -4.8751730825
 C        -8.3199097300       -2.1340181835       -6.1048027963
 C        -9.3275886675       -4.3770514854       -6.5924208022
 C        -6.6386474531       -4.5178731864      -12.3914442346
 C        -4.3431333029       -5.4520881950      -12.1555895506
 C        -3.0277230259        1.2612215214      -16.3051171021
 C        -4.5292435188       -0.3830248396      -17.4905982377
 C        -0.2915370449       -2.3450227730      -20.8475833724
 C         2.1018559528       -1.9407933426      -20.6804495160
 C         1.3817104377        2.8374428522      -26.0817810565
 C         3.4355930701        3.7948714590      -24.9435302053
 C        -1.9879153270        6.4552550198      -19.9417273404
 C        -1.6829438060        8.0494310994      -21.7710460476
 H         1.0842241246        9.5285980698      -19.2008384152
 H        -0.4185170516        9.9473709786      -20.0090200436
 H         1.0964979339        9.5201378790      -21.0136514531
 H         0.8495345182        7.3448492521      -22.9657829873
 H        -0.1833440860        6.2494906238      -23.5310456087
 H         2.3658496966        5.0486622079      -22.5266751827
 H         2.3478842638        5.8090536741      -24.2010795652
 H         2.0136643224        0.0211295179      -25.2372833731
 H         0.5085826681        0.4998977106      -24.5936623402
 H         2.8273291446       -0.5083615031      -22.7114228523
 H         1.6972740592       -1.6772443214      -23.5666271209
 H         1.5105636113       -0.5974964639      -17.7827775498
 H         0.3918879494       -1.9188289186      -18.3670709751
 H        -0.3046608783        0.8724756356      -17.2161210994
 H        -0.4746282696       -0.5874957522      -16.3552060502
 H        -5.0648126736       -0.9957866988      -15.2688707721
 H        -4.1822418955       -0.7000047637      -13.8922550001
 H        -3.2919745013       -3.2647070990      -14.1621496581
 H        -4.9915819907       -3.4028256039      -14.7071945785
 H        -6.7287171095       -2.3749087051      -10.4532556461
 H        -5.2909427538       -1.7678056554       -9.9616449517
 H        -6.6566931324       -1.6146150136       -8.1736018385
 H        -5.5234400336       -2.7202763521       -7.6410740150
 H        -7.3267835753       -6.0188252090       -6.7924100464
 H        -7.4508848443       -6.1220965771       -5.0533062832
 H        -4.5836065118       -5.7062674460       -6.3544571429
 H        -5.2763100464       -7.2007785137       -6.3823322241
 H        -1.4583395322       -7.6981373480       -6.0024493172
 H        -0.2082415292       -7.3294489158       -4.8687868035
 H         0.4271532414       -5.7244638646       -6.0498287473
 H        -1.2177559696       -4.8851061284       -5.7915044592
 H        -2.8472237308       -3.8675087671       -7.9459773382
 H        -2.4592949394       -3.0025408507       -9.3901408562
 H        -3.2447765293       -1.4470899670       -7.7445514169
 H        -1.4417976716       -1.1460702472       -7.4405140505
 H        -4.3108796040        0.8944805557       -4.9959965672
 H        -2.5893182720        1.3107800243       -4.5388934785
 H        -4.8581091489        0.7006383609       -2.4867658154
 H        -4.1242458112        2.3894466663       -2.7331995632
 H        -2.2495902254       -0.8935418868        1.6102568393
 H        -2.1277128711       -1.6006815264       -0.0546394024
 H        -4.2436999183       -2.2605359565        2.0476026804
 H        -2.9106508975       -3.3528267911        1.5153961525
 H        -6.9998479870       -1.1525363883       -1.5643370483
 H        -7.2599254254       -1.5846737652        0.0414573193
 H        -9.3075641869       -3.0240461590       -0.9770616363
 H        -8.9247538577       -2.3472425514       -2.5254503837
 H       -13.3750644856       -2.0924869782       -3.6004400946
 H       -13.8593095784       -0.9006526931       -2.4402016152
 H       -13.6446634992       -2.6617977814       -1.9300946009
 H       -11.5010990748       -2.3466013615        0.5339006480
 H       -12.8900905044       -1.3818405274        0.3276537960
 H       -11.4020783367       -0.6197022806        1.0946542233
 H       -11.1881023302        1.2788473581       -0.8938483046
 H       -12.7864960066        0.7828434530       -1.0044038254
 H       -11.7904736637        0.7055304119       -2.4614623034
 H        -6.4335902617       -5.9686890003        0.2016356816
 H        -4.8789159025       -5.6686597538        0.5778391577
 H        -5.2336439188       -5.4698373901       -1.0969931694
 H        -7.5217405608       -3.0801635513        1.1651225563
 H        -6.1447856862       -2.7913628830        2.0647818744
 H        -6.6091483873       -4.4770172783        1.9796230992
 H        -2.0675167501        1.9558862054        1.4916983877
 H        -1.0879822969        2.1492115197       -0.0816998034
 H        -1.0933519512        0.6624005770        0.5917245077
 H        -4.4178517092        2.4901477298        1.0694893528
 H        -4.9469988734        2.3638233738       -0.4929887473
 H        -3.5295441000        3.3370106414       -0.0155252663
 H        -0.4137152603       -2.9408504140       -4.1398076994
 H        -2.0331927847       -3.1250591691       -3.3769391832
 H        -1.0223027123       -1.6868610463       -2.8550674029
 H        -0.0086568560       -1.1247717141       -5.7925260207
 H        -0.5570376382        0.0722602379       -4.4520834675
 H        -1.2790991541        0.0791924247       -6.1509438467
 H         1.2420326387       -6.4725899701       -8.5818971506
 H         1.8345580622       -4.7345912077       -8.0928185360
 H         1.4833504521       -5.2267353367       -9.8026753970
 H        -1.9713660795       -5.1527986293      -10.0402205639
 H        -0.7732140255       -6.2984380003      -10.4064448935
 H        -0.6018903606       -4.5746481164      -10.8934083771
 H        -2.7684890525       -8.7686115277       -2.4325185561
 H        -4.1110385715       -7.7338297505       -2.0303660527
 H        -2.4889923969       -7.0163054796       -2.1437536777
 H        -4.3687203239       -9.3482013890       -4.6850120692
 H        -2.5721350920       -9.1789473568       -4.7294711166
 H        -3.5558742330       -8.4813745665       -5.9584072303
 H        -8.8539611083       -1.6149512387       -6.8452380009
 H        -7.3938372390       -1.6211078039       -5.8180057364
 H        -9.0004540150       -1.9855836053       -5.2801844292
 H        -9.3912647923       -5.1741893284       -7.3244339044
 H       -10.1255476792       -3.6658692223       -7.0243319472
 H        -9.6414407911       -4.6896563216       -5.5858360606
 H        -7.0820803958       -5.3823736675      -11.9466758286
 H        -6.5619587213       -4.7217710154      -13.5082529287
 H        -7.3094458501       -3.7149245394      -12.3430918557
 H        -3.2546464141       -5.2273306289      -11.8393287233
 H        -4.5557625349       -5.6898113660      -13.2239403770
 H        -4.7943185761       -6.2233075317      -11.5971100044
 H        -2.0155316761        1.5491554824      -16.2287080885
 H        -3.5755648103        1.4331401539      -15.3473978580
 H        -3.5631992180        1.9775782397      -17.0343459389
 H        -4.7391698782       -1.4417652406      -17.4982329657
 H        -4.4054152425       -0.1772000679      -18.5919416840
 H        -5.4271783310        0.1351035127      -17.1907249372
 H         0.1218196793       -3.0315432647      -21.5325506983
 H        -1.2483236353       -1.9134725671      -21.2703323509
 H        -0.4912637207       -2.7132438108      -19.8033049180
 H         2.2318389598       -2.6095563013      -21.5584818817
 H         2.0513569342       -2.5830387075      -19.8328795248
 H         3.0139113626       -1.3179169715      -20.6566792507
 H         0.4152707584        2.2259477947      -25.9442483484
 H         2.0102865364        2.2894992472      -26.8718698063
 H         1.0838222663        3.7153242412      -26.6476559976
 H         3.3517176664        4.7566713005      -25.5624547384
 H         3.9144491139        3.1772368956      -25.6691867337
 H         4.0653946774        3.9371997501      -24.0879432364
 H        -2.5067574089        7.2921577944      -19.3797380366
 H        -1.6100017459        5.7811092332      -19.2122394476
 H        -2.7810899692        5.9518269842      -20.4894318263
 H        -1.0125081496        8.6025402890      -22.4430793362
 H        -2.2387591435        8.8093416452      -21.1379409308
 H        -2.3023529828        7.4883330672      -22.4859638192
 Na       -4.3392298313       -3.9937550133       -3.3960781868
 Na        0.2760189179        2.6467382174      -21.6961921970
