232

 C         0.6375333167        9.0016242606      -19.9264906276
 C         0.2917257987        7.5675502134      -19.7770994054
 O         0.7898757372        6.8063680028      -19.0322531595
 C        -0.8699625451        6.8984625808      -20.8243785924
 C        -0.0926148102        5.8627603595      -21.6092548766
 O         0.0103635474        4.7405066451      -21.0891292681
 C         0.5092450040        6.3663455283      -22.9049045596
 C         1.5587116523        5.4734855678      -23.4957871896
 C         1.0009960204        4.1679748269      -24.2691046776
 O        -0.0758590439        3.7428326436      -24.0387111320
 C         1.9763169426        3.1119408848      -25.0389756771
 C         2.0437314784        1.9983352695      -23.9115637212
 O         2.4129579182        2.2502852091      -22.7474679236
 C         1.5170734074        0.6276402789      -24.3498017332
 C         1.5008365696       -0.5657182772      -23.3760615011
 C         0.6611900579       -0.3769766128      -22.0938654001
 O        -0.2154917800        0.4420431983      -22.1042124713
 C         0.7468367557       -1.2534178349      -20.8210476312
 C         0.6107810063       -0.2600967297      -19.5956848274
 O         0.6375633607        0.9855112452      -19.6498053931
 C         0.5468152494       -0.7711754186      -18.1937290205
 C        -0.5648222637       -0.0792819912      -17.4088345326
 C        -1.9906925432       -0.2845026070      -17.8896053633
 O        -2.2470730769       -0.6040739408      -19.0414037562
 C        -3.2228672375       -0.2138843897      -16.8329396994
 C        -3.1850896910       -1.3255259581      -15.7691217285
 O        -2.3722544162       -2.2295353603      -15.9353866930
 C        -4.1169070014       -1.4460996694      -14.5337047062
 C        -4.4271446722       -2.8426524946      -14.0920066773
 C        -4.6406003511       -2.8755112370      -12.5565947518
 O        -4.2898590974       -1.8917295948      -11.9165562084
 C        -5.1978712717       -4.1222137705      -11.8389936096
 C        -5.2405795020       -3.7797003719      -10.3117582646
 O        -4.7967573692       -4.6109478211       -9.5325061066
 C        -6.0471681705       -2.5997925371       -9.7878972364
 C        -6.3315163593       -2.6173438859       -8.2678120682
 C        -7.2839254608       -3.8314706122       -7.9258049354
 O        -7.3271707928       -4.8295772837       -8.5394818879
 C        -8.0199630418       -3.6628538693       -6.4435739989
 C        -6.9339412579       -4.3197322541       -5.6066762927
 O        -6.1662063661       -3.6191789445       -4.9973042030
 C        -6.6985206647       -5.8626424737       -5.7201964569
 C        -5.2559742252       -6.3433825265       -5.7165735728
 C        -4.7847730775       -6.6894333004       -4.3175864078
 O        -5.3050041630       -6.1866379016       -3.3066863714
 C        -3.3777676842       -7.4260010893       -4.0174845322
 C        -2.2960159389       -6.3141658240       -4.4658926182
 O        -2.4830594656       -5.1250354361       -4.2714817092
 C        -1.0879079527       -6.7694327706       -5.2778455149
 C        -0.4559762539       -5.6274492006       -6.2347930399
 C        -0.8239417175       -5.9682994217       -7.6582956139
 O        -1.4606529879       -6.9207494245       -7.9970839263
 C        -0.1588894827       -5.0837471578       -8.7782544244
 C        -0.4099185823       -3.6010245403       -8.3527134421
 O         0.5155621511       -2.8385206588       -8.2155812923
 C        -1.8195056546       -3.1467653960       -8.3806006348
 C        -2.2837440905       -1.8927123578       -7.5496588100
 C        -2.4314599916       -2.2206373850       -5.9505177551
 O        -3.1013808864       -3.2199894452       -5.6445197961
 C        -1.8899091365       -1.3122180806       -4.7588589075
 C        -3.1917228643       -0.5953299842       -4.1359868809
 O        -3.9962710690       -1.3848788308       -3.6062675795
 C        -3.2479218971        0.9602105531       -4.1547076972
 C        -3.8769583211        1.3064654864       -2.8407460071
 C        -2.8009258187        1.0316428410       -1.6920117667
 O        -1.7076861896        0.5926683619       -2.0192259302
 C        -3.1136515003        1.2750027075       -0.2090534535
 C        -3.7459575485       -0.1907622833        0.1727710047
 O        -4.8981758924       -0.4105740209       -0.0505353772
 C        -2.8644606319       -1.2897180283        0.8218125872
 C        -3.7111883789       -2.5949809882        1.1034020781
 C        -4.3943926585       -3.2471790684       -0.2397484663
 O        -3.7522232868       -3.4223539260       -1.2412327046
 C        -5.7932106722       -3.9417738720       -0.0282546284
 C        -6.7007544912       -3.3018627605       -1.1664479865
 O        -6.8300171514       -3.8842446226       -2.2152485357
 C        -7.3690944800       -1.9464828826       -0.9042855973
 C        -8.9076946414       -2.2043488327       -1.1396950723
 C        -9.6859851611       -0.9293706571       -1.0448381632
 O        -9.1491749740        0.0844344979       -0.7448795789
 C       -11.2737797920       -0.8924155134       -1.2415050135
 C       -11.8413308085       -1.8898202689       -2.2236331641
 O       -11.3153148710       -2.9554531955       -2.6049706350
 C       -13.3597547366       -1.8227947740       -2.4857236710
 C       -11.7162676852       -1.1417208041        0.3049258012
 C       -11.7519695116        0.4980956878       -1.6146578072
 C        -5.6370208761       -5.4422260349       -0.2768406458
 C        -6.5305758367       -3.7727965257        1.3974513370
 C        -1.7255083537        1.4574337299        0.4359249568
 C        -4.1506654471        2.2761946144        0.3083711536
 C        -1.2929908919       -2.3050695507       -3.7279038697
 C        -0.7470010617       -0.3852868689       -5.3090718986
 C         1.4362256751       -5.2262791594       -8.9229406951
 C        -0.8898811462       -5.4141239817      -10.0630178216
 C        -3.2543500940       -7.7555877840       -2.5656505245
 C        -3.2356548689       -8.6748960118       -4.9060035586
 C        -8.3114935052       -2.2302486099       -6.0377348747
 C        -9.3609227720       -4.4711276244       -6.3930841173
 C        -6.6801011563       -4.4181221703      -12.2783305613
 C        -4.1725060776       -5.2542982404      -12.2058213495
 C        -3.1002636255        1.2704778426      -16.2543348963
 C        -4.5732711797       -0.2239405218      -17.5922761094
 C        -0.5129669340       -2.1961034128      -20.7775495237
 C         2.0646467049       -1.9242008598      -20.6601484972
 C         1.2206630157        2.7282163051      -26.2227662949
 C         3.4974673666        3.4957496987      -25.2991167750
 C        -2.0239080358        6.2805280538      -19.9160319337
 C        -1.4945695727        7.9828401320      -21.8177412888
 H         1.4155260441        9.2524968607      -19.1824823022
 H        -0.2412936989        9.6133974030      -19.7799555585
 H         0.9644151681        9.1795068309      -20.9140493115
 H         0.9469437090        7.3346600761      -22.6382160321
 H        -0.3500295330        6.7253963440      -23.6362505577
 H         2.0647455383        5.0587539878      -22.6492105608
 H         2.2711279003        5.9476342595      -24.1118732682
 H         2.1105830859        0.2000690647      -25.3110356059
 H         0.5662968436        0.7949659797      -24.7300530187
 H         2.4810981892       -0.8045494252      -23.0756698113
 H         1.1143301550       -1.4268779943      -23.8647028427
 H         1.5145286539       -0.4491361426      -17.8144268620
 H         0.5204858308       -1.8295064371      -18.0587113470
 H        -0.3164638130        1.0282578866      -17.2573917427
 H        -0.6573839026       -0.4442452447      -16.3874907359
 H        -4.9604713505       -0.7430494846      -14.4681898715
 H        -3.4870056964       -0.9893523905      -13.7164619629
 H        -3.5708934065       -3.5096043841      -14.3064893611
 H        -5.2350338619       -3.0811361060      -14.7296492097
 H        -7.0149133440       -2.5982233727      -10.2593418561
 H        -5.6930220251       -1.5881717446      -10.0205997059
 H        -6.6620495094       -1.5801670676       -7.9190036780
 H        -5.4229296768       -2.8162596612       -7.6011234643
 H        -7.3221949820       -6.2710568807       -6.5303821519
 H        -7.0789088433       -6.3205581741       -4.8077215070
 H        -4.4633080090       -5.6594541223       -6.0787421055
 H        -5.1987480513       -7.0876400477       -6.5628504192
 H        -1.3406891505       -7.6625925585       -5.9096643134
 H        -0.2944827420       -7.2019271027       -4.6130275596
 H         0.6516098308       -5.5893511819       -6.0982902391
 H        -0.9943196525       -4.7771660176       -6.0455296262
 H        -2.5004662095       -3.9701816680       -8.1059615245
 H        -1.9763418689       -2.9539838913       -9.5068388203
 H        -3.1939435464       -1.4671408877       -7.9398853237
 H        -1.5478521555       -1.1985502539       -7.5949275338
 H        -3.8964150103        1.2964637821       -4.9622250545
 H        -2.3041513828        1.3119100417       -4.2616408044
 H        -4.7398146559        0.7524425956       -2.7226802219
 H        -4.0560481731        2.3972273740       -2.7929944627
 H        -2.4441610643       -0.8351765165        1.7132856111
 H        -1.9554817233       -1.5113363877        0.1885866826
 H        -4.5033983636       -2.3327916105        1.8060992398
 H        -3.1724797225       -3.4440575290        1.4613897631
 H        -6.9673953708       -1.1937288139       -1.5957210621
 H        -7.1534591407       -1.7223185728        0.1146186196
 H        -9.1699782866       -2.9676041872       -0.4574321430
 H        -9.0139813727       -2.7167111618       -2.0146018824
 H       -13.6822961625       -2.5131229734       -3.2676588672
 H       -13.6085913409       -0.8651461152       -2.9134169706
 H       -13.8529865578       -2.0063199689       -1.5760581188
 H       -11.3206407515       -2.1402223384        0.6237029598
 H       -12.7683108889       -1.3214175101        0.2532026829
 H       -11.4258991529       -0.3342674842        0.9453606317
 H       -11.1259970913        1.3034497863       -1.1521329217
 H       -12.8031998988        0.5274756948       -1.2416549560
 H       -11.9046254082        0.6596853734       -2.6452869820
 H        -6.5897910903       -5.9785740386       -0.2593187120
 H        -5.1065643050       -5.9773598800        0.6079088172
 H        -5.0650502502       -5.5909503545       -1.1757101924
 H        -7.6383403249       -3.7248076439        1.3895531262
 H        -6.2737574284       -2.8542969048        1.8761503800
 H        -6.1761627600       -4.5763523658        2.0199429287
 H        -1.9676385837        1.6953699654        1.4510527345
 H        -1.2447249737        2.2025517143       -0.2346317444
 H        -1.0871158913        0.5252895562        0.3089266386
 H        -4.3907137422        2.2131439550        1.3676745266
 H        -5.1314413403        2.1811451995       -0.0790324582
 H        -3.7876280508        3.3345050486        0.3017214245
 H        -0.5266540216       -2.8927165412       -4.1830071062
 H        -1.9308605413       -3.0089682083       -3.3039706066
 H        -0.9868153675       -1.6058013611       -2.9993358366
 H        -0.1499417173       -0.9874604418       -5.9414523370
 H        -0.2048655067       -0.0234103128       -4.4984295272
 H        -1.1085713313        0.4404493793       -5.8621435163
 H         1.8444328333       -5.6306943111       -8.0171977088
 H         1.8690705308       -4.2696656631       -9.0778252888
 H         1.5434064138       -5.8425891344       -9.8236838932
 H        -1.9675858378       -5.6640439775      -10.0045336541
 H        -0.3239932277       -6.3132961930      -10.3756059221
 H        -0.7967917505       -4.6288037046      -10.8363930700
 H        -3.1791049857       -8.8222898324       -2.4415100352
 H        -4.0940468061       -7.5299651834       -1.9840430347
 H        -2.3925281598       -7.3201024527       -2.0685434271
 H        -4.1547730248       -9.2931366706       -4.6823734130
 H        -2.2323160141       -9.1644554518       -4.8088979280
 H        -3.4352270543       -8.5359202146       -5.9539097423
 H        -9.0526804171       -1.7828558346       -6.7110947599
 H        -7.4726126444       -1.5792917829       -5.8614101353
 H        -8.7684252438       -2.1177568286       -5.0313830769
 H        -9.1967337549       -5.4943997143       -6.7570482596
 H        -9.9973688605       -4.1443241503       -7.1272852239
 H        -9.8483524112       -4.4644167019       -5.4291918231
 H        -6.9337747644       -5.2728693589      -11.5854712832
 H        -6.8593457216       -4.7943589066      -13.2173910220
 H        -7.4006486280       -3.6469440404      -11.9828730503
 H        -3.2766538791       -4.8194922792      -12.2501599632
 H        -4.5949350258       -5.8465982867      -13.0135203693
 H        -4.1918374089       -5.8349010044      -11.2526651201
 H        -2.0198101498        1.3663060950      -15.8529944551
 H        -3.8253361215        1.4590169898      -15.4765173991
 H        -3.0348574017        2.0528197551      -17.0149359880
 H        -4.8054097589       -1.1667228546      -18.0840943142
 H        -4.8027609875        0.5938822055      -18.2510315773
 H        -5.4321174733       -0.0397355283      -16.8619371148
 H        -0.0526576000       -3.1565758304      -21.1905514708
 H        -1.2879149774       -1.8323744246      -21.3594665941
 H        -0.8307120662       -2.3583081255      -19.7742505754
 H         2.2298464026       -2.5525768621      -21.5372056650
 H         2.2296347795       -2.5588612628      -19.7659838012
 H         2.8372813660       -1.1568334508      -20.8123114777
 H         0.1511067227        2.6310733377      -26.1995463356
 H         1.6591746335        1.9365607697      -26.7837045217
 H         1.4120966592        3.5197134115      -26.9999337586
 H         3.4849907786        4.3269461578      -25.9102897820
 H         4.0368208532        2.7811145343      -25.9318118066
 H         4.0210797128        3.8365101124      -24.3794131101
 H        -2.4909205600        6.9692390905      -19.2707371108
 H        -1.5272951871        5.5129874945      -19.2405538358
 H        -2.7769083484        5.6634891869      -20.4550256061
 H        -0.8153372385        8.6610236740      -22.3530960158
 H        -2.1029716207        8.6254634867      -21.2126527376
 H        -1.9399565452        7.5092903136      -22.7408572188
 Na       -4.4072299157       -3.7519188668       -3.4929797553
 Na        0.1061156918        2.4703384785      -21.5862027954
