232

 C         0.7704141912        8.8517897651      -19.7664469580
 C         0.3028126410        7.3378904633      -19.7106513389
 O         0.6909067359        6.6401572759      -18.8038434990
 C        -0.8055780857        6.7818750611      -20.7954162260
 C        -0.0625320289        5.8068875512      -21.7516027363
 O        -0.0397281746        4.6649926662      -21.3869320689
 C         0.6166538465        6.2743507959      -23.0932447972
 C         1.6398834693        5.3040907194      -23.7015641123
 C         0.9303229526        4.1492103473      -24.4162427025
 O        -0.2869383263        3.9745255502      -24.3014916226
 C         1.8686827275        3.0460303881      -25.1226212563
 C         1.7613766844        1.9436060082      -23.9916768372
 O         2.1168491229        2.3584844240      -22.9231786837
 C         1.3014160441        0.5757711124      -24.3464490987
 C         1.5179998729       -0.4231713077      -23.2177626402
 C         0.4840182509       -0.2394666620      -22.0945723596
 O        -0.4644122945        0.5457154707      -22.2528634794
 C         0.6464959230       -1.0424999476      -20.7359474564
 C         0.5232630986       -0.1397855201      -19.4818637481
 O         0.6113856306        1.0550419121      -19.5328088281
 C         0.3854051555       -0.7012478296      -18.1091362145
 C        -0.6371253821       -0.0792321227      -17.1859862951
 C        -2.0584791361       -0.2835805826      -17.7856102027
 O        -2.1527110099       -0.7534493292      -18.9314108713
 C        -3.2959885799       -0.1508013725      -16.8613138177
 C        -3.2355357878       -1.5125257636      -15.9712424362
 O        -2.4142152159       -2.3692029839      -16.1996949640
 C        -4.0196258955       -1.3254795655      -14.6121734142
 C        -4.6714163553       -2.6538415459      -14.0525750124
 C        -4.6773206788       -2.5993294450      -12.5584955405
 O        -4.2506289033       -1.6826504823      -11.8858447366
 C        -5.1983418187       -3.9971091211      -11.8063787073
 C        -5.3890434679       -3.8242731785      -10.2685334500
 O        -4.7784765271       -4.5535221369       -9.4683876799
 C        -6.2440686400       -2.6805902357       -9.7972083974
 C        -6.5100164361       -2.6572701744       -8.2602382132
 C        -7.3967767648       -3.8666219240       -7.8917354935
 O        -7.5166400492       -4.8568333704       -8.5753506337
 C        -7.9983230851       -3.8140831081       -6.3148353586
 C        -6.9569248711       -4.4348641811       -5.4159486986
 O        -6.1936963995       -3.6884022656       -4.8589081262
 C        -6.6977155209       -5.9426202940       -5.5298509362
 C        -5.2120809638       -6.4221435841       -5.6677316587
 C        -4.7172924078       -6.6363621246       -4.2469599885
 O        -5.3022639299       -6.2355201577       -3.2876850836
 C        -3.2929950088       -7.3569655435       -4.1772515240
 C        -2.2091875983       -6.2533932791       -4.5177932166
 O        -2.4796729957       -5.0978071988       -4.3266394288
 C        -0.8221420590       -6.6230552736       -5.0511543679
 C        -0.2620924812       -5.6839401103       -6.1382029634
 C        -0.6531386185       -5.9120701302       -7.6474452771
 O        -1.3534162235       -6.8955105172       -7.8818624232
 C         0.0279343951       -5.0558244295       -8.8103227928
 C        -0.3192042887       -3.5288203255       -8.4417903850
 O         0.5229353423       -2.7058474593       -8.2547652068
 C        -1.7961212207       -3.0764329956       -8.2882996503
 C        -1.8743287186       -1.7904941638       -7.4589103761
 C        -2.3748042551       -2.1441377701       -6.0399083053
 O        -3.2081250283       -2.9801435031       -5.7842490924
 C        -1.7978769908       -1.1908598853       -4.7681912976
 C        -3.0731297544       -0.5326405943       -4.1640973666
 O        -3.9559156379       -1.2042368652       -3.6774038024
 C        -3.2313119254        1.0899831135       -4.1152156429
 C        -3.7257732078        1.4690241107       -2.6532641745
 C        -2.7413076505        0.9473090259       -1.6409077882
 O        -1.6076206012        0.5900993728       -1.9795391860
 C        -3.0935234037        1.1023831175       -0.0644988401
 C        -3.7779912994       -0.3404485641        0.2192129808
 O        -4.9799083029       -0.4914606541       -0.0043153068
 C        -2.9054950627       -1.5573577031        0.6751987741
 C        -3.6979255885       -2.7148120689        1.0980344607
 C        -4.2634171071       -3.4487248938       -0.1728118314
 O        -3.5552433587       -3.4759594693       -1.1915501160
 C        -5.7999169158       -4.0517699735       -0.0191652121
 C        -6.7301472972       -3.4050287248       -1.1269059651
 O        -6.7855024267       -3.9068806400       -2.2362832939
 C        -7.5242193255       -2.0541630215       -0.8971300022
 C        -9.0516916406       -2.2435436786       -0.9731378737
 C        -9.7612358174       -0.9260760055       -1.0400613260
 O        -9.1030994708        0.1176390177       -0.8640311852
 C       -11.3136070382       -0.9012343018       -1.1615780062
 C       -11.8990765473       -1.9967331127       -2.1654523659
 O       -11.3155339466       -2.7921559322       -2.8225645162
 C       -13.4022863122       -1.9165907352       -2.4942907128
 C       -11.8849924283       -1.1156699347        0.2237331507
 C       -11.6455084984        0.5276556688       -1.8044533991
 C        -5.5854397613       -5.6060383316       -0.4918630676
 C        -6.3895724257       -3.9738550701        1.4073806392
 C        -1.8274573803        1.3461824999        0.9034419600
 C        -4.1711460589        2.1949560969        0.0301495981
 C        -1.0617894034       -2.1447879223       -3.6958982600
 C        -0.8043296401       -0.1130766914       -5.2899978014
 C         1.5257343388       -5.3511387912       -8.9307668425
 C        -0.7054373501       -5.3993163336      -10.2259457438
 C        -3.0621148115       -7.6720700532       -2.6300487726
 C        -3.2255122241       -8.6999569616       -5.0053920488
 C        -8.2772302515       -2.3756379584       -5.9072710555
 C        -9.2389786152       -4.6570193394       -6.4678330560
 C        -6.5921773972       -4.4088548196      -12.4532807703
 C        -4.1802907627       -5.2115291934      -12.0884787187
 C        -3.1950875923        1.0167458961      -15.8520927754
 C        -4.5371075985       -0.1433871742      -17.7158184723
 C        -0.4773950642       -2.1049373965      -20.8997335761
 C         2.0127627036       -1.9380633554      -20.6986017843
 C         1.2236016164        2.6472994598      -26.5342578765
 C         3.1983917163        3.5388722057      -25.3660887617
 C        -1.8797432125        6.0869284493      -19.9448751100
 C        -1.4543156993        8.0667382857      -21.5038438569
 H         1.5720417129        9.0337964415      -19.0952374477
 H        -0.0692929368        9.5078198736      -19.5824272800
 H         1.0122737988        9.0762298495      -20.8188876322
 H         1.0394681637        7.2953215103      -23.0246734798
 H        -0.1568528279        6.3444453497      -23.7679489506
 H         2.3005240252        4.8007265341      -22.9414232130
 H         2.2818761862        5.8147097152      -24.5023866505
 H         1.8585280175        0.2660985661      -25.1512745706
 H         0.2538716460        0.5841950410      -24.8288700420
 H         2.5513024736       -0.3119549105      -22.7622107810
 H         1.4314174083       -1.4940956278      -23.5282636174
 H         1.3524297501       -0.7488074158      -17.5937268646
 H         0.1135163435       -1.7965786765      -18.0866962089
 H        -0.4932074073        0.9114664464      -16.9130700334
 H        -0.6773117919       -0.6416776105      -16.2409379416
 H        -4.6836593799       -0.4687765953      -14.7487058730
 H        -3.3522197832       -0.9040468032      -13.8412666078
 H        -4.0447421351       -3.4992825320      -14.4054531516
 H        -5.7372213969       -2.8078377624      -14.4137050981
 H        -7.2619418528       -2.6673660424      -10.3176110780
 H        -5.7584763876       -1.7042388868      -10.1167909381
 H        -7.0493866584       -1.8042745490       -7.8881184356
 H        -5.5998102395       -2.6567563686       -7.6782548421
 H        -7.3084843695       -6.3226600901       -6.3330955161
 H        -7.0239502918       -6.3607059804       -4.5711107434
 H        -4.5585050910       -5.7637735538       -6.2289273236
 H        -5.1925848641       -7.2421327405       -6.3372715042
 H        -0.6199042599       -7.6469374676       -5.3388009249
 H        -0.1451758445       -6.5706876219       -4.2160111371
 H         0.7793352829       -5.9319152048       -6.1283839288
 H        -0.5790227174       -4.5878708095       -5.8863638915
 H        -2.4364894729       -3.8846576052       -7.9162529946
 H        -2.1862128099       -2.8003895244       -9.2280063889
 H        -2.6795036422       -1.1708774859       -7.9489035445
 H        -0.8596281034       -1.1848470911       -7.6623585728
 H        -4.0181502928        1.4401583361       -4.8174556189
 H        -2.2036809159        1.5763780272       -4.3229781794
 H        -4.6772469208        0.9260040734       -2.2612557289
 H        -3.8318522438        2.5276709054       -2.5431316467
 H        -2.0117064110       -1.3236653758        1.3267851886
 H        -2.3530408238       -1.9277033712       -0.1769210617
 H        -4.5476723472       -2.3909385481        1.7057563401
 H        -3.0055872554       -3.4221692359        1.6239010675
 H        -7.2516255581       -1.4238458375       -1.7823471066
 H        -7.3169934865       -1.5886119028        0.0999353212
 H        -9.3114510760       -2.8326606213       -0.0445803614
 H        -9.3078198061       -3.0155230547       -1.8123881802
 H       -13.7969462001       -2.9109823631       -2.3937497618
 H       -13.6538463359       -1.5725344482       -3.4871821878
 H       -13.9436208314       -1.3094194251       -1.6720909871
 H       -11.7181496139       -2.1027281983        0.6080015198
 H       -12.9888019139       -0.9703666390        0.1418543255
 H       -11.4245856501       -0.3488504794        0.8360158063
 H       -11.2232582372        1.3999183728       -1.3001087500
 H       -12.7171142689        0.6140378169       -1.9838786138
 H       -11.2936508083        0.5125369747       -2.8804564967
 H        -6.5531583539       -6.0502118475       -0.7880888160
 H        -5.2432384912       -6.2329507089        0.2795379239
 H        -4.8738659299       -5.6348261501       -1.3336843753
 H        -6.9310605771       -4.8829941544        1.6596871719
 H        -7.1520656818       -3.1002147339        1.4586738937
 H        -5.6393091473       -3.9236259743        2.2132376291
 H        -2.0199242226        0.7467856237        1.7888703433
 H        -1.7184007105        2.4105930791        1.0463451604
 H        -1.0594670354        0.8826889192        0.4043074199
 H        -4.2956807488        2.5640451723        1.0269327718
 H        -5.2003064109        1.8163243974       -0.1340285653
 H        -4.0124224436        3.0900464765       -0.5221203841
 H        -0.5202467860       -2.8245874914       -4.3068184186
 H        -1.8007857320       -2.8947294499       -3.3283924551
 H        -0.5473431788       -1.5923554653       -2.8620450337
 H         0.1076331067       -0.6930283367       -5.5436297345
 H        -0.6030433687        0.6149704837       -4.4859676367
 H        -1.2189895668        0.4831534845       -6.1202006399
 H         2.0570498949       -4.5361845008       -8.4458865353
 H         1.7792110663       -5.2837337962       -9.9985389538
 H         1.6450921663       -6.3773068554       -8.6412468948
 H        -1.7192861366       -5.0052220110      -10.2670246824
 H        -0.6710246480       -6.4636991710      -10.4078259965
 H        -0.1804521128       -4.9184823903      -11.0647220599
 H        -3.2123679023       -8.7420247116       -2.3683153157
 H        -3.8568499733       -7.1733553547       -1.9608923444
 H        -2.0994152288       -7.3596640957       -2.2213864301
 H        -4.1375558340       -9.1757919171       -4.8651390395
 H        -2.4160577942       -9.2290687631       -4.5855806432
 H        -3.1256066144       -8.7049279303       -6.0954146152
 H        -8.8054693044       -1.8317867150       -6.7333617433
 H        -7.3389661170       -1.8036546800       -5.7033646809
 H        -8.7558928629       -2.1492351155       -4.9907804155
 H        -9.0549107329       -5.6590005064       -6.7801495424
 H        -9.9007607935       -4.2344258533       -7.2866860281
 H        -9.8024443095       -4.6821842247       -5.5492198364
 H        -7.1174974408       -5.1795870026      -11.9338746177
 H        -6.4831846225       -4.8457911847      -13.5218295862
 H        -7.2637635818       -3.5299273385      -12.3879317881
 H        -3.1716024422       -4.6896600762      -11.8609609112
 H        -4.3746620328       -5.5844253930      -13.0763028766
 H        -4.3794908599       -5.9005807166      -11.2849234292
 H        -2.7537759754        0.9171331561      -14.9155809156
 H        -4.2968149483        1.2326154875      -15.6642255922
 H        -2.6000252031        1.8252045772      -16.3200711039
 H        -4.4349572414       -0.9030788811      -18.5327879239
 H        -4.7923028706        0.8688168482      -18.1185696325
 H        -5.4839395391       -0.3110340837      -17.2235828624
 H        -0.4255463332       -2.5853196960      -21.8103022078
 H        -1.4139756657       -1.4936080815      -20.7132001463
 H        -0.3581318520       -2.8804690042      -20.1019135769
 H         2.0584285307       -2.7319971728      -21.4233523988
 H         1.8703640281       -2.4332678003      -19.7468279759
 H         2.9490331049       -1.4500459874      -20.7111533042
 H         0.1592691933        2.7344063096      -26.4352167981
 H         1.5864335924        1.7490768641      -27.0458158736
 H         1.4226769507        3.4335417632      -27.2130273112
 H         3.1655445347        4.3719648822      -26.1553575686
 H         3.7956146475        2.7301425522      -25.7857205093
 H         3.6869112947        3.9713867517      -24.5133774975
 H        -2.2592147098        6.8678248815      -19.2425602362
 H        -1.5047953633        5.3081956328      -19.3258549836
 H        -2.6760888296        5.6374496050      -20.4809314774
 H        -0.8146493131        8.6014166767      -22.2265859645
 H        -1.6545960653        8.8196807614      -20.7545357860
 H        -2.2359653022        7.8962635411      -22.1238996600
 Na       -4.4220994881       -3.5366451291       -3.5115327719
 Na        0.2529174540        2.5709414341      -21.4314820992
