232

 C         1.4452775936        8.0629596668      -19.6862672353
 C         0.3609013411        6.8152595651      -19.6081847059
 O         0.5887513094        5.8840516759      -18.8513712298
 C        -0.7860013585        6.7124696947      -20.7441253250
 C        -0.1379061422        5.7999367666      -21.8036787375
 O         0.1203461118        4.6510588727      -21.4525891596
 C         0.2903746336        6.3113066119      -23.1635249841
 C         1.3433945976        5.4430606892      -23.8196067545
 C         0.6836610587        4.4670204803      -24.8467611694
 O        -0.3679530478        4.8186790816      -25.3909475108
 C         1.3409014146        3.0606686608      -25.4672595146
 C         1.4472185277        2.0522044018      -24.2341874266
 O         1.8609829246        2.3924209895      -23.1054641875
 C         0.9372464775        0.6558388787      -24.4587291804
 C         1.1844218960       -0.3695343882      -23.3270262877
 C         0.3857987947       -0.0409184604      -22.0079477317
 O        -0.4727560785        0.7749740008      -22.1192706998
 C         0.5626451558       -1.0317940749      -20.7984383328
 C         0.3407389238       -0.1709547976      -19.4368253230
 O         0.3066657652        1.0341635931      -19.5859369220
 C         0.3647616717       -0.9334435903      -18.1213363405
 C        -0.7417221348       -0.5843688621      -17.0561451686
 C        -2.0879249604       -0.2105742879      -17.7249165593
 O        -2.2304569170       -0.2426310523      -18.8928170749
 C        -3.4346838589        0.0603795191      -16.7806255753
 C        -3.6164090899       -1.3958087043      -16.0008447537
 O        -3.2735080110       -2.4555375344      -16.5245917424
 C        -4.2390616316       -1.2836585826      -14.5655649212
 C        -4.7918154316       -2.5735419104      -13.9391260912
 C        -4.7523510274       -2.7436648045      -12.3787725427
 O        -4.4092660810       -1.7815773186      -11.7080162402
 C        -5.2790001946       -4.0799155629      -11.5977781764
 C        -5.4422003687       -3.5813721789      -10.1123299274
 O        -4.5677773371       -3.7470929400       -9.3212759691
 C        -6.6928896253       -2.8032630737       -9.8468745521
 C        -7.0514017032       -2.7532149548       -8.3756231498
 C        -7.9750472827       -3.9422335355       -7.9079142466
 O        -8.4935528913       -4.6975836579       -8.7332583390
 C        -8.1253660846       -4.1901777688       -6.3494519309
 C        -6.7361168587       -4.6460598925       -5.8410825024
 O        -5.8397599132       -3.8220048580       -5.6609488673
 C        -6.5213078079       -6.1046177062       -5.6796023462
 C        -4.9871264175       -6.5254430931       -5.8598847814
 C        -4.3559438134       -6.7210175480       -4.5493995050
 O        -4.8974488930       -6.3436692234       -3.5630747390
 C        -2.9235682747       -7.2981287472       -4.4278902629
 C        -1.9486453663       -6.0577601982       -4.6924205121
 O        -2.3486111229       -4.9115236233       -4.6020324261
 C        -0.3306366223       -6.2477067959       -4.8396338659
 C         0.3514299115       -5.5760659961       -5.9973589594
 C        -0.3131683374       -5.8434392984       -7.3149497460
 O        -1.3673010861       -6.4827994295       -7.3464267584
 C         0.1782037978       -5.0880536084       -8.5219480471
 C        -0.0597839365       -3.5289590119       -8.2744637484
 O         0.9592314117       -2.8617427005       -8.1714586548
 C        -1.5277353315       -3.0219210478       -8.1439153627
 C        -1.4957764116       -1.7657341272       -7.3140619650
 C        -2.2749887757       -1.9172795835       -6.0303664521
 O        -3.1125127099       -2.6892318804       -5.7179992314
 C        -1.6692064703       -0.9007772935       -4.8000711868
 C        -2.9218413347       -0.3918551466       -3.9702971361
 O        -3.6769652396       -1.1524802378       -3.4460902572
 C        -3.2174038127        1.0704427913       -3.6678396884
 C        -3.8969042031        1.3657432696       -2.3633555576
 C        -2.8563166312        1.0811591999       -1.2167619270
 O        -1.7751866798        0.6464499616       -1.5749897064
 C        -3.2488101594        0.9895036295        0.3103955461
 C        -3.7246863812       -0.4698581752        0.5285143885
 O        -4.8694736060       -0.7790464019        0.1768532716
 C        -2.7526408988       -1.5994822787        0.8228166019
 C        -3.4427221804       -2.9971969785        1.0396804838
 C        -4.3199565562       -3.5223881240       -0.1461036364
 O        -3.9214680266       -3.5682739813       -1.2834483475
 C        -5.7713321751       -4.0719802048        0.0651289576
 C        -6.6758630822       -3.3401849215       -0.9193694843
 O        -6.5585650042       -3.6344054546       -2.1110192137
 C        -7.5135544548       -2.2022038421       -0.4691195164
 C        -8.9737044526       -2.4524355463       -0.9591778606
 C        -9.6550689198       -1.1173868875       -1.2687424260
 O        -8.9072214964       -0.1839204030       -1.5120695097
 C       -11.2536251051       -0.9673918511       -1.4036468751
 C       -11.7484759244       -2.0077703765       -2.4303399269
 O       -11.0552403370       -2.3010498365       -3.3972362627
 C       -13.2025528326       -2.5380746481       -2.3381422719
 C       -11.6801958628       -1.1754063354        0.0357047841
 C       -11.6115507435        0.4602826686       -1.8674832754
 C        -5.8115192436       -5.6129544113       -0.3649693996
 C        -6.2794844128       -3.9776875338        1.4944581738
 C        -1.9668926925        1.1293332296        1.1515264382
 C        -4.3114342674        2.0092022240        0.7118643594
 C        -0.9540181716       -1.9142296235       -3.8692108052
 C        -0.7563753597        0.2710753802       -5.2538457151
 C         1.6410887015       -5.2881984045       -8.9131191356
 C        -0.6825636353       -5.4272602843       -9.8292449741
 C        -2.6688698813       -7.8920614934       -2.9686825959
 C        -2.6403735584       -8.4950126493       -5.4737029905
 C        -8.5027031669       -2.8349367903       -5.7339185147
 C        -9.2725506979       -5.1863298732       -6.0178753697
 C        -6.5753628095       -4.4945157943      -12.2869292460
 C        -4.1582859884       -5.1774147611      -11.7504544228
 C        -3.1804971264        1.2892716295      -15.7955871472
 C        -4.6037524255        0.4094553448      -17.7834210026
 C        -0.5116316832       -2.1026314641      -20.8792479677
 C         2.0124202866       -1.5403313431      -20.7457475147
 C         0.4213330628        2.5946944054      -26.5767690248
 C         2.6950105750        3.4569259924      -25.9679714755
 C        -1.9621313991        5.8959511513      -20.1021891337
 C        -1.2593092487        8.0352050439      -21.3762456952
 H         2.1690305298        7.9921976466      -18.8819358488
 H         0.9927813061        9.0608980433      -19.7023513914
 H         1.9835612273        7.9633965308      -20.6459624203
 H         0.6510699524        7.3101036001      -23.0785812825
 H        -0.6093233229        6.1998361128      -23.8330011034
 H         1.8747184058        4.8443795975      -23.0104126949
 H         2.0081083215        6.0358188874      -24.4019809429
 H         1.4424525805        0.3649227226      -25.3787879782
 H        -0.1209673395        0.6409697077      -24.8253806655
 H         2.2597407090       -0.3377710533      -23.0632251099
 H         0.9542420262       -1.4465630617      -23.6466444082
 H         1.3958220265       -0.7244559063      -17.6221831179
 H         0.3152366027       -2.0252228814      -18.2645201942
 H        -0.4685721350        0.3523030105      -16.5152432070
 H        -1.0084524085       -1.3586744778      -16.3737475720
 H        -5.0814739508       -0.6035038612      -14.5968619589
 H        -3.4783658453       -0.9325820992      -13.9313325776
 H        -4.3849114571       -3.5059106230      -14.3580199589
 H        -5.8711375063       -2.6415664266      -14.1012953611
 H        -7.5437839242       -3.1090370359      -10.3633984440
 H        -6.5787580195       -1.8038689439      -10.0099478718
 H        -7.5440696435       -1.7825654497       -8.1898335098
 H        -6.1996534878       -2.8261556393       -7.7673337457
 H        -7.1719284435       -6.5570708885       -6.4720241523
 H        -6.6634949357       -6.4083259090       -4.6152332085
 H        -4.3489743951       -5.7841107444       -6.4270128551
 H        -5.0473975567       -7.4013841480       -6.5221016365
 H         0.0085414767       -7.2585620536       -4.7837347071
 H         0.2441616478       -5.9281777170       -3.9540924724
 H         1.4202743327       -5.9746301777       -6.0657349650
 H         0.4071402800       -4.5049685176       -5.8391461551
 H        -2.1580020343       -3.7604153216       -7.7095701537
 H        -2.0811493621       -2.9364358019       -9.0839256359
 H        -1.9612303409       -1.0305279442       -7.9859305407
 H        -0.5125846365       -1.3219246326       -7.2731573429
 H        -3.9216597750        1.3256401073       -4.4615155403
 H        -2.3399275416        1.7164471177       -3.8204136539
 H        -4.7645319564        0.8028328261       -2.1348264681
 H        -4.2065336081        2.4881877570       -2.2848387402
 H        -2.0772738856       -1.3880679633        1.5934604158
 H        -1.9086094614       -1.6213805932        0.0817630555
 H        -4.0816072873       -2.9560333522        1.9266911457
 H        -2.6838932070       -3.7844115669        1.1826089185
 H        -7.2218853610       -1.3548076870       -1.0286450009
 H        -7.5676750849       -1.8471082594        0.5531574444
 H        -9.5878825610       -3.0383888854       -0.2065139928
 H        -8.9123087374       -2.9379002971       -1.9587638930
 H       -13.7928153596       -1.8254733434       -1.7098064420
 H       -13.2839509936       -3.5978794011       -1.9761727571
 H       -13.6940635257       -2.4651503876       -3.2940160409
 H       -11.4272719009       -2.1936043074        0.2595481194
 H       -12.7265984640       -1.0644608035        0.0733485408
 H       -11.2099481405       -0.4803588144        0.8252384647
 H       -10.9934879734        1.1387211827       -1.3142779286
 H       -12.6202527809        0.7453095989       -1.6551912385
 H       -11.2859790097        0.6177717901       -2.9242617390
 H        -6.7670257371       -6.0364836925       -0.2275594206
 H        -5.0100194119       -6.0996052247        0.1218379758
 H        -5.6111612797       -5.7058768704       -1.4200596972
 H        -7.1331501058       -4.7189030832        1.5678807041
 H        -6.6324559894       -3.0110847535        1.7340810810
 H        -5.6258814015       -4.1720651560        2.3884519093
 H        -2.2621534498        0.8121310974        2.1476028601
 H        -1.7832592600        2.1723191865        1.2303119435
 H        -1.1228876492        0.5472046851        0.6755341074
 H        -4.2006413251        2.1141896892        1.7898118099
 H        -5.2766878865        1.6350920374        0.4550851793
 H        -4.3271858349        2.9219345172        0.1834396007
 H        -0.0265856666       -2.4231450925       -4.3770354405
 H        -1.6915244645       -2.5749519878       -3.3732840919
 H        -0.4569865072       -1.3101545899       -3.1201316960
 H         0.1624253285       -0.0378021621       -5.7806816557
 H        -0.3368745394        0.8210029334       -4.3445033530
 H        -1.3895129121        0.8347504808       -5.9701252236
 H         1.9551728960       -6.3517433741       -8.6349405110
 H         2.2471082870       -4.5526599077       -8.3510059958
 H         1.7929985686       -5.1463492965       -9.9803489340
 H        -1.7311552580       -5.2868884865       -9.6693262488
 H        -0.5915932024       -6.4942412227      -10.0323144478
 H        -0.3503197482       -4.9420322304      -10.7353064591
 H        -3.5644125522       -7.7412013675       -2.3398435494
 H        -1.8136071068       -7.6694319029       -2.3578204337
 H        -2.6408061965       -9.0317544687       -2.9993342352
 H        -3.1695882470       -9.3788588333       -5.2738342733
 H        -1.6433123476       -8.7918487570       -5.2835865683
 H        -2.5821923123       -8.1915365498       -6.4785451380
 H        -9.2216516619       -2.2443488611       -6.1745443567
 H        -7.6809926343       -2.1527414651       -5.8332054605
 H        -8.7952376324       -2.9467619122       -4.6581039143
 H        -9.1422153962       -6.2174833838       -6.3584034790
 H       -10.1711679950       -4.6740058676       -6.3802718797
 H        -9.4564524293       -5.2731096463       -4.9346251561
 H        -7.0830048573       -5.1962067677      -11.5872412154
 H        -6.3336828422       -5.0219860233      -13.2389463507
 H        -7.2275600316       -3.7193160247      -12.5492364089
 H        -3.2765899942       -4.7580897199      -11.2723465771
 H        -3.9382978059       -5.3162781298      -12.8374240027
 H        -4.6189238194       -5.9141107839      -11.2015373109
 H        -2.5706203637        0.8623627406      -15.0190540564
 H        -4.0891340730        1.6613858474      -15.3240715824
 H        -2.7887867472        2.1544097372      -16.3790774836
 H        -4.7599741238       -0.4453728477      -18.3863766194
 H        -4.2932169866        1.0636357878      -18.5877652464
 H        -5.5623741507        0.6183306950      -17.3777445008
 H        -0.0819316279       -2.8856577582      -21.5168593013
 H        -1.3821811100       -1.6986943488      -21.4461933982
 H        -0.7307193774       -2.6125616976      -19.9310617613
 H         2.1221720638       -2.1490534516      -21.6354290218
 H         2.2300903749       -2.1197006437      -19.9272631681
 H         2.7474222958       -0.7202953740      -20.7809714620
 H        -0.6931003334        2.4608412005      -26.2391622618
 H         0.7885592887        1.5353361609      -26.9394660842
 H         0.6387580728        3.3370190917      -27.3643788104
 H         2.4982625595        4.0302627060      -26.8886446287
 H         3.4294133497        2.6844473901      -26.1227967218
 H         3.2013455419        4.1685076821      -25.2912744705
 H        -2.4076600565        6.2372745470      -19.1835803284
 H        -1.5826643748        4.9464461287      -19.8474757160
 H        -2.8061945817        5.7283399349      -20.7729111005
 H        -0.5665971213        8.5809981925      -21.9734354340
 H        -1.6407467165        8.7462947668      -20.5938610196
 H        -2.2702132507        8.0199117675      -21.7907945650
 Na       -4.4224218392       -3.5217346984       -3.7335268136
 Na        0.5962357400        2.5233060186      -21.1278690759
