232

 C       -21.7484325562       -7.4221920945       -2.9851749141
 C       -20.8584449268       -6.2772914398       -3.3738550906
 O       -19.7625104356       -6.0886689552       -2.8832562310
 C       -21.3683478238       -5.2000928123       -4.4798989235
 C       -20.1586297914       -4.3082249746       -4.7067860676
 O       -19.8119694008       -3.5850049038       -3.7553911331
 C       -19.3199890105       -4.3797540964       -5.9970939726
 C       -18.3718625431       -3.1518786020       -6.0844278066
 C       -17.3699632972       -3.3069392657       -4.9488460403
 O       -17.0977813792       -4.4589245107       -4.5238058610
 C       -16.6168365732       -2.0209889243       -4.4586924290
 C       -16.3334916174       -2.3451335720       -2.9458149629
 O       -17.2001280431       -2.2759844872       -2.1034813625
 C       -15.0071091521       -2.9445120432       -2.4985729712
 C       -14.8861637649       -3.3965797981       -1.0299190137
 C       -15.3985190027       -4.8687710720       -0.7674750572
 O       -16.4718937450       -5.1807862488       -1.2581783832
 C       -14.5785911667       -5.9423089614       -0.0160098320
 C       -13.3819770268       -6.3832527217       -0.9926784578
 O       -12.7695939597       -5.5373840435       -1.5758437617
 C       -12.8448953002       -7.8317452861       -0.8505132848
 C       -11.4372287552       -8.0940356393       -1.5822980666
 C       -11.4946317840       -9.3840937175       -2.3594929145
 O       -12.4995912222       -9.7611114178       -2.9032076992
 C       -10.0319720348      -10.0499329170       -2.5076503131
 C        -8.9046762952       -8.9798154277       -2.6949088629
 O        -8.0163841417       -9.0002866581       -1.8719166136
 C        -8.8932219343       -7.9331484016       -3.8465934604
 C        -7.5213346247       -7.1477689524       -3.8164454397
 C        -7.3857622075       -5.7400343586       -4.4161479946
 O        -8.2746959195       -5.2185190422       -5.0764571783
 C        -6.0809507106       -4.9566405411       -4.3984229491
 C        -5.2250660567       -5.5994190497       -5.5387723946
 O        -4.7162577519       -6.6573239688       -5.3961501782
 C        -5.1726979878       -4.8345475431       -6.8662247545
 C        -4.2910131172       -5.4825042148       -7.9822614977
 C        -4.0110875058       -4.4225657788       -8.9920456303
 O        -4.9845951425       -3.9646308938       -9.6435059281
 C        -2.6667694808       -3.8366904009       -9.3373689992
 C        -1.7778679087       -4.9826943110      -10.0884302706
 O        -0.9381028787       -5.5624074470       -9.4511115326
 C        -2.1166203769       -5.4836994385      -11.4609688017
 C        -0.7707478445       -5.9606776764      -11.9714513987
 C         0.0932529093       -4.6488916048      -12.0797930725
 O        -0.4277293292       -3.5535507638      -11.8817512470
 C         1.5586641412       -4.9123515775      -12.5198543048
 C         2.2285784414       -3.5144404531      -13.0767323871
 O         2.3280074542       -3.3200859748      -14.2552675856
 C         2.8331141427       -2.4537342771      -12.0260359180
 C         3.9539003577       -1.6955241214      -12.5945566283
 C         3.6914253834       -0.2353376800      -12.6070905919
 O         2.5724547883        0.2939473013      -12.5006114768
 C         4.9982130693        0.7330842848      -12.2992457316
 C         5.1142245649        1.8126190425      -13.3720802071
 O         5.8232017524        1.6155758999      -14.3276894414
 C         4.0359558730        2.9517349108      -13.4791460964
 C         4.1118543401        4.3641116945      -12.8338423947
 C         5.4428583166        4.9482931014      -13.2756999573
 O         6.3084339794        4.3173457345      -13.8551555725
 C         5.7134106806        6.4024334493      -12.7377690660
 C         6.3240194646        7.0825157017      -13.9869255849
 O         5.6245607184        7.5734802196      -14.8409861436
 C         7.8122529188        6.8879664361      -14.1720330677
 C         8.2511520820        7.1095382180      -15.6125270208
 C         7.3643639407        6.2541945179      -16.5787921545
 O         7.1632197838        5.0758237217      -16.2530538039
 C         7.0600992077        6.7361341931      -18.0078258071
 C         8.3095679359        7.3162382245      -18.6903849079
 O         9.1011710458        7.9357687940      -17.9881008311
 C         8.5708320086        7.2269577351      -20.1669859406
 C         9.6131032596        6.2205244397      -20.7167611478
 C         9.2208904348        4.7552569141      -20.4075911891
 O         8.7734060307        4.5350191743      -19.3147276255
 C         9.2839540892        3.5759663853      -21.5645410306
 C         8.7885118609        2.2407220748      -20.8902640879
 O         7.6978992157        1.8341296062      -21.2370417217
 C         9.7331326226        1.6789501888      -19.7585406834
 C         9.0121179914        0.5349557798      -19.0664531700
 C         7.6894095157        0.8387947482      -18.2905051579
 O         7.8082537967        1.6051115621      -17.3759349348
 C         6.3459390697        0.3069732298      -18.7886147247
 C         5.4556960156        1.5799161250      -19.0457919831
 O         5.0896398092        2.3984229399      -18.1827261508
 C         4.3925121680        1.3903404414      -20.2703623621
 C         6.3248419815       -0.6919227389      -20.0142769463
 C         5.5552851224       -0.4750534524      -17.5801583178
 C         8.3283404415        3.8201625730      -22.7354633751
 C        10.6432014208        3.3991669953      -22.0906722584
 C         6.1344561132        5.8199589065      -18.8086400796
 C         6.0879903836        8.0046359943      -17.7783844829
 C         4.2748769865        7.0626810618      -12.3536013707
 C         6.6151222924        6.2066151032      -11.5145924387
 C         4.4466252567        1.5092829626      -11.0064282748
 C         6.2837392319       -0.0390103331      -12.0982114660
 C         2.3339900447       -5.2877149328      -11.2033289751
 C         1.7769500872       -6.0745962210      -13.4673753853
 C        -2.9524451785       -2.6284505019      -10.1798732051
 C        -1.9028426602       -3.4408696541       -8.0723790404
 C        -6.5025800195       -3.4763942292       -4.4297926765
 C        -5.2743068769       -5.1540490045       -3.1252224328
 C        -9.6660773671      -10.9473961331       -1.3517436843
 C       -10.1430015211      -10.8841581628       -3.8575327258
 C       -13.8438705993       -5.3321007346        1.2297456129
 C       -15.4891307775       -7.0718878456        0.4794714136
 C       -15.4080036616       -1.9037841759       -5.3912416152
 C       -17.4994302894       -0.6868466512       -4.6197172989
 C       -21.5922940643       -6.0983489380       -5.7934261077
 C       -22.6967999028       -4.4853026438       -4.1552490690
 H       -22.8370046117       -7.0781851504       -3.1431586741
 H       -21.4718971668       -7.8020362901       -1.9731819061
 H       -21.4907240110       -8.1772196503       -3.7423655644
 H       -19.8998091592       -4.6019353799       -6.8692254519
 H       -18.6407338690       -5.2384976850       -5.9171609096
 H       -18.9829883116       -2.2841523335       -5.9903306672
 H       -17.8261508162       -3.2183846673       -7.0073518548
 H       -14.1472107488       -2.2671778159       -2.7319265853
 H       -14.8001802751       -3.8024015075       -3.1657530841
 H       -15.3340807066       -2.6700789976       -0.2910723858
 H       -13.8741359442       -3.4843124061       -0.7844676697
 H       -13.5269179985       -8.5510528334       -1.3410401453
 H       -12.8761325822       -8.1552198025        0.1981476720
 H       -10.6298353929       -8.0505191676       -0.7599674370
 H       -11.2109088384       -7.2926717685       -2.2958602694
 H        -9.6907237520       -7.2584572314       -3.7163054543
 H        -8.9645980062       -8.3015556183       -4.8363041488
 H        -6.7134537026       -7.7731261015       -4.2562586773
 H        -7.2589138377       -7.0905332002       -2.8006866009
 H        -4.8170059212       -3.7813806701       -6.6385474788
 H        -6.1574755128       -4.6618346169       -7.2898487561
 H        -4.7657563880       -6.2903575323       -8.6186254216
 H        -3.3344652890       -6.0316813396       -7.6172448799
 H        -2.4050217576       -4.5779859806      -11.9900399760
 H        -2.9167991762       -6.2749744117      -11.3170856340
 H        -0.9646272696       -6.3945815384      -12.9622072005
 H        -0.2377863448       -6.6832139179      -11.2429177018
 H         3.2205464202       -2.9388337398      -11.1139011369
 H         1.9356226659       -1.8064906775      -11.8031155273
 H         4.2126779454       -1.9607398793      -13.5739820840
 H         4.8763120328       -1.9144766751      -12.0117152602
 H         3.0474115527        2.4871168342      -13.1080833118
 H         3.6907876219        3.0883713510      -14.5431024013
 H         4.2417036746        4.2230456865      -11.7993081288
 H         3.2080325357        4.9008128896      -12.8392440128
 H         8.0129137452        5.8187261956      -13.8829837420
 H         8.3998839134        7.5564463330      -13.4977758573
 H         9.2553344933        6.7065062786      -15.5388913538
 H         8.3626043203        8.1262772203      -15.9153133908
 H         9.0910330932        8.2022734552      -20.3610858725
 H         7.6255408341        7.0100200114      -20.6927487891
 H        10.4967935971        6.3824664078      -20.1785819654
 H         9.7408238454        6.3304673319      -21.8111042262
 H        10.0697517044        2.5653998131      -19.0527259692
 H        10.7074451189        1.3043224228      -20.1993466000
 H         9.6191803151        0.0814946126      -18.2576978408
 H         8.8483321059       -0.2893364950      -19.7297074695
 H         3.7256805697        0.4495968241      -20.1537235438
 H         5.0113813722        1.4305446458      -21.1556171734
 H         3.7343640057        2.2294799343      -20.3139135419
 H         5.3970696020       -1.2499870471      -20.1108775118
 H         7.0606716121       -1.4655764391      -19.8399327997
 H         6.5664450858       -0.1775349123      -20.9898917983
 H         4.5691195435       -0.1381364872      -17.3079363851
 H         6.1558901628       -0.5265920028      -16.6461931232
 H         5.6431128532       -1.5569919371      -17.8861064931
 H         7.3126273332        3.3814872115      -22.5895786551
 H         8.7294134828        3.3530153012      -23.6832978356
 H         8.2077094192        4.9127102114      -22.8917310741
 H        10.6657286368        2.6962090838      -22.9537195424
 H        11.3348120180        2.9986159774      -21.3495246593
 H        10.9993813738        4.3890903275      -22.3821035106
 H         5.1462203102        5.6984577706      -18.4104243527
 H         6.4474999834        4.7730922016      -18.7851019035
 H         6.0733464176        6.1370828018      -19.9003820121
 H         6.6204457101        8.7898011594      -17.2172586645
 H         5.2363847183        7.6888619248      -17.1837776973
 H         5.7381883086        8.4549366740      -18.7058876303
 H         4.4073970614        8.1031055637      -12.1402603628
 H         3.9002012451        6.4493092632      -11.5241517181
 H         3.6090288819        6.8497263310      -13.1580330398
 H         6.1656906681        5.5337879447      -10.8666347352
 H         6.7854303286        7.1085615545      -11.0333463131
 H         7.6098959495        5.8201841925      -11.7494424196
 H         5.1224464690        2.1909369337      -10.4373148303
 H         4.1136015860        0.7284898282      -10.2224833047
 H         3.5538010978        2.0284533018      -11.2157110610
 H         6.2718493588       -0.7090434198      -11.1342157835
 H         7.1658861829        0.5953521999      -12.1211360819
 H         6.6340757973       -0.7355581911      -12.8870189763
 H         2.4404386440       -4.4248919108      -10.5425458304
 H         3.3267344756       -5.6803931441      -11.3676153870
 H         1.8076031047       -5.9631005833      -10.5912753451
 H         0.9280575874       -6.7268270231      -13.5689739394
 H         2.6968864267       -6.6107726683      -13.1799806830
 H         2.0162824273       -5.6698662136      -14.4492936736
 H        -3.8783432142       -2.2078197369       -9.8986163070
 H        -3.1393720020       -2.8489674926      -11.2224648765
 H        -2.1990485327       -1.9355220928      -10.1042137634
 H        -1.1815144584       -2.7377083567       -8.4459720183
 H        -1.3641714613       -4.2889317465       -7.6614147204
 H        -2.5475864536       -2.8817204402       -7.3858424154
 H        -7.0015371171       -3.1845523571       -5.4368529118
 H        -5.6340726960       -2.8088202501       -4.2699724440
 H        -7.2306124569       -3.3669918350       -3.6217445047
 H        -5.7984998357       -5.1358776788       -2.1693596917
 H        -4.4893571492       -4.3984163665       -3.0563372367
 H        -4.7717926651       -6.1331261769       -3.1467729301
 H       -10.4110152860      -11.7913180453       -1.1194553109
 H        -9.4023576836      -10.3366679763       -0.4881042447
 H        -8.7364089562      -11.4195833245       -1.6099364984
 H       -11.0373476095      -11.4550239396       -3.8172504074
 H        -9.1461242328      -11.3811445620       -4.0226508920
 H       -10.2273300311      -10.0956774090       -4.6155088600
 H       -14.5388592233       -4.6384908126        1.7383926056
 H       -12.9397526332       -4.7254119012        0.9456735746
 H       -13.4280418301       -6.0598085361        1.9475087509
 H       -16.1746935582       -7.5447787306       -0.2410123907
 H       -16.1794363482       -6.5915807317        1.1544135279
 H       -14.8687316594       -7.8392182180        1.0531607694
 H       -14.8438763616       -2.8275629221       -5.4797492649
 H       -14.7973343228       -1.1220657294       -5.0878097114
 H       -15.6796144983       -1.7699436317       -6.4397431782
 H       -18.4172871402       -0.6845193532       -4.1334556877
 H       -17.7097212719       -0.3686520126       -5.7281462348
 H       -16.8608578762        0.1170937977       -4.1561115274
 H       -20.7013385675       -6.4912380127       -6.0846753194
 H       -21.9232768822       -5.4270934367       -6.5948876009
 H       -22.2979607841       -6.9087248885       -5.6859532691
 H       -22.9111284177       -3.9082685706       -4.9982654329
 H       -22.4749439590       -3.7862348223       -3.3390269196
 H       -23.5512259909       -5.1859465171       -3.9878250457
 Na      -18.2130676121       -4.5649983311       -2.4923139782
 Na        6.2086509191        2.8836794943      -16.1742620674
