232

 C         1.4173917580        7.8189027202      -19.7255124267
 C         0.4435284276        6.7172714339      -19.6023063810
 O         0.4031065452        5.7544199914      -18.9036615447
 C        -0.7523377827        6.6462490051      -20.7221382721
 C        -0.1190808003        5.7570581633      -21.8213946717
 O         0.0519294697        4.5871567776      -21.5342107051
 C         0.4186286921        6.3087802307      -23.1940937282
 C         1.2978115257        5.1969076819      -23.8878164951
 C         0.5488431978        4.4962574756      -25.0620037110
 O        -0.4442304226        4.9559011283      -25.5139567332
 C         1.2056129801        3.1134165179      -25.6242237393
 C         1.3122049564        2.1189024090      -24.3934374397
 O         1.8135574183        2.5179032319      -23.3739611743
 C         0.6701524609        0.7350059289      -24.4378564290
 C         1.1793129468       -0.0705905723      -23.2447767842
 C         0.3004370736       -0.0297520612      -22.0252510440
 O        -0.6356173807        0.7922500030      -22.0483544041
 C         0.4899183353       -0.8715979442      -20.7229455146
 C         0.3519261198       -0.1555608534      -19.3426191587
 O         0.6028756136        1.0400922894      -19.1496467930
 C         0.1487088859       -1.1655764092      -18.1294685265
 C        -0.7917235256       -0.4993258786      -17.1147927617
 C        -2.2867706155       -0.2876284570      -17.7484002492
 O        -2.3627656669       -0.2823379639      -18.9743965315
 C        -3.4784253336       -0.0054998762      -16.8308296953
 C        -3.7774354397       -1.3885875137      -15.9953905856
 O        -3.4530052975       -2.4368694968      -16.4462946766
 C        -4.2143151510       -1.2195191558      -14.5450374009
 C        -4.6803097818       -2.6264146770      -14.1020918135
 C        -4.7503207172       -2.6054940863      -12.5268704221
 O        -4.2963382981       -1.6416125036      -12.0079745594
 C        -5.2996293143       -3.8715710076      -11.6091765617
 C        -5.5589226768       -3.5144433923      -10.2090610657
 O        -4.7560938000       -3.7240810889       -9.3008369374
 C        -6.8562322378       -2.7833104235       -9.9380781653
 C        -7.2301840483       -2.7689045072       -8.3617840198
 C        -8.1546351679       -3.9704714895       -7.8364130657
 O        -8.6871060200       -4.6271770490       -8.6615240769
 C        -8.2519089174       -4.1898683722       -6.2978299728
 C        -6.6759752917       -4.7056840872       -5.9702071323
 O        -5.8558539109       -3.8608384316       -5.7749622931
 C        -6.3029524220       -6.2117076624       -6.0199370677
 C        -4.8153507513       -6.4974022943       -5.9357958439
 C        -4.1510733695       -6.6288856403       -4.5941150834
 O        -4.6088683041       -6.0931849103       -3.5349538792
 C        -2.7755125516       -7.3649033718       -4.5006252262
 C        -1.7558607795       -6.0805194986       -4.6770728478
 O        -2.2824210719       -4.9719177333       -4.6101473170
 C        -0.3334548746       -6.3600091089       -4.6201533950
 C         0.3800725641       -5.6002380754       -5.8175960431
 C        -0.3574367754       -5.7998977971       -7.2377643654
 O        -1.4566130921       -6.2551141824       -7.2850273996
 C         0.1921675994       -5.0407506096       -8.5207445663
 C        -0.0359057053       -3.4467594115       -8.2078308619
 O         0.9368273691       -2.7272630726       -7.9807403973
 C        -1.4641648400       -2.9251468180       -8.0120253270
 C        -1.5506674129       -1.6050397999       -7.2306674629
 C        -2.1637689672       -1.8081873059       -5.8097178020
 O        -3.0864883453       -2.6590502854       -5.7334167612
 C        -1.7449960099       -0.9123215319       -4.6965657035
 C        -3.0008547476       -0.4874863284       -3.8628650878
 O        -3.7731374917       -1.3227149136       -3.3943256367
 C        -3.3415720700        0.9537817223       -3.5558057168
 C        -3.9289314359        1.0782911225       -2.1556999854
 C        -2.8082494999        0.8957012704       -1.1798206520
 O        -1.6606665170        0.6919493092       -1.4952708129
 C        -3.2255904570        0.8031453294        0.3044102641
 C        -3.8329448842       -0.6577292416        0.6131051799
 O        -4.9817975502       -0.8900239615        0.4130598889
 C        -2.7966895390       -1.6924279851        0.7949509643
 C        -3.3083638115       -3.1018329474        1.0472776725
 C        -4.1523960812       -3.5535927831       -0.1590881446
 O        -3.5675241006       -3.5349295392       -1.2152697243
 C        -5.6351668691       -4.0199557349        0.0104320442
 C        -6.5869182195       -3.3042927910       -1.0021322861
 O        -6.5167127233       -3.4895660901       -2.2022409539
 C        -7.4752015996       -2.1703777648       -0.5443687810
 C        -8.8767693016       -2.2522338188       -1.2361529547
 C        -9.5912802780       -0.9022953421       -1.5485231424
 O        -8.9956757460        0.1039303981       -1.7908004278
 C       -11.2301838451       -1.0569772901       -1.5726623531
 C       -11.7009104046       -2.0505773764       -2.5527748154
 O       -11.0167514216       -2.3168760995       -3.5473191561
 C       -13.0943012005       -2.6280496157       -2.2086357779
 C       -11.6904977259       -1.4311895452       -0.0938930144
 C       -11.6280693924        0.4433353991       -1.8512708316
 C        -5.6276020776       -5.5169522850       -0.4280747115
 C        -6.0464944476       -4.0929265947        1.4705200226
 C        -2.0075571834        1.1844951961        1.2080034713
 C        -4.3662815145        1.7964945404        0.7218018998
 C        -0.7996599712       -1.8109664378       -3.8037542695
 C        -0.8855146072        0.2942439773       -5.2059468515
 C         1.6355511333       -5.3939501623       -8.8072505334
 C        -0.7717934031       -5.4726144303       -9.6150984437
 C        -2.4801765732       -7.9024677910       -3.0904913446
 C        -2.4440598420       -8.4040819615       -5.5482697635
 C        -8.5117668953       -2.9468497209       -5.5479204934
 C        -9.2734064865       -5.3559327287       -6.0228046810
 C        -6.5237397585       -4.5283631108      -12.3775346052
 C        -4.1033971744       -4.9039271326      -11.5985706516
 C        -2.9699057974        1.1101555789      -15.7791546339
 C        -4.7002406238        0.4480531845      -17.6060815752
 C        -0.5187045314       -2.0599238507      -21.0127106412
 C         1.9226081114       -1.5921496126      -20.7006136833
 C         0.1951836250        2.5296864113      -26.7024746962
 C         2.6750818913        3.2680863823      -26.1221998107
 C        -1.9237220710        6.0210271367      -20.1240013542
 C        -1.2012022039        8.0924240615      -21.0677721065
 H         2.1149828738        7.8135807757      -18.8417510818
 H         0.9037370278        8.7939482966      -19.7993825381
 H         2.0187305719        7.6596367986      -20.6347597418
 H         1.0883364588        7.1700589830      -22.8746265653
 H        -0.3931036076        6.5807199141      -23.8716026634
 H         1.5261542081        4.5401713998      -23.1254890785
 H         2.2656654231        5.6041839071      -24.3061639191
 H         0.7590612596        0.1465187658      -25.4340196575
 H        -0.3792040831        0.9094488925      -24.3819427628
 H         2.1031814434        0.3518905673      -22.8638909436
 H         1.3853635634       -1.0460909878      -23.5554429756
 H         1.0858265401       -1.2484133289      -17.7053850474
 H        -0.2825935846       -2.1444321769      -18.2842828089
 H        -0.4581910945        0.5329377784      -17.0217699651
 H        -0.9066079673       -1.0376275517      -16.1276497944
 H        -5.0713528383       -0.5529453838      -14.6229779821
 H        -3.3684184721       -0.9579689553      -13.8333179611
 H        -3.9778520312       -3.3857396596      -14.4573421510
 H        -5.6159069786       -2.9626043672      -14.5017393032
 H        -7.7317453641       -3.1915968872      -10.5053242257
 H        -6.7445532974       -1.6406556889      -10.1488085150
 H        -7.8364394564       -1.9176200235       -8.0251579746
 H        -6.2498816852       -2.7917634727       -7.7568857806
 H        -6.5632882203       -6.4896331356       -7.0258991979
 H        -6.8149709984       -6.7235981106       -5.2082861928
 H        -4.3021801027       -5.7454371539       -6.5486211547
 H        -4.8384241804       -7.3891927578       -6.5727825558
 H        -0.0304559034       -7.4467405181       -4.7383973436
 H         0.1083081404       -6.1074667612       -3.6604987252
 H         1.4089388037       -5.8041418898       -5.7945286965
 H         0.3228105968       -4.5016702986       -5.7770018770
 H        -2.1089045846       -3.7213159565       -7.5289528504
 H        -1.9579903923       -2.9802552234       -8.9917120487
 H        -1.9457636924       -0.7990300664       -7.8603168711
 H        -0.5097350634       -1.3484851274       -7.1739622313
 H        -4.0696274224        1.3019582444       -4.3095503655
 H        -2.4879626374        1.5642666325       -3.6731716766
 H        -4.7147093593        0.3510811436       -1.8315149635
 H        -4.3660422286        2.0004283906       -1.9840402423
 H        -1.9238062168       -1.4165187551        1.4783951875
 H        -2.1768473436       -1.6845000221       -0.0739012998
 H        -3.9278023750       -3.1129381523        1.9438652087
 H        -2.5325271215       -3.8470578413        1.1624415449
 H        -6.9660716484       -1.1982065501       -0.7497005186
 H        -7.7455619705       -2.1231634940        0.4789713213
 H        -9.5017220722       -2.9278548755       -0.7245350725
 H        -8.6675476747       -2.6004647117       -2.1969165411
 H       -13.8718657096       -1.8676960095       -2.1718846470
 H       -13.0312785284       -3.0965549783       -1.2380952766
 H       -13.3861518301       -3.3924933377       -2.9177963988
 H       -11.4324563593       -2.4828786161        0.1465014604
 H       -12.7943637863       -1.3003372886       -0.0059007252
 H       -11.2348799604       -0.8077281684        0.5728136874
 H       -11.1811177649        1.2517397600       -1.3004981890
 H       -12.6631159706        0.4102187696       -1.5149202367
 H       -11.5426329152        0.6251104667       -2.8514538946
 H        -6.6901544547       -5.7364002655       -0.6070791889
 H        -5.1818093352       -6.2298564912        0.3190304870
 H        -5.1749882379       -5.6735069987       -1.3911275535
 H        -7.0493290759       -4.3679735556        1.7041209986
 H        -5.8001596117       -3.1517127151        1.9855622403
 H        -5.3048286469       -4.6601101946        1.9556783489
 H        -2.1348093598        0.6973283548        2.1726663658
 H        -2.0593554494        2.3133482522        1.3986571603
 H        -1.1227917108        1.0122830971        0.5813595630
 H        -4.2885165460        1.9631823860        1.7910790188
 H        -5.3864988002        1.5243990300        0.3837660051
 H        -4.2057758181        2.7807233208        0.1658808559
 H         0.0605511570       -2.0042821204       -4.3378321665
 H        -1.3331112393       -2.6937820843       -3.5049493662
 H        -0.3731379968       -1.2915578437       -2.9256268819
 H         0.0716674775       -0.1080799895       -5.5885329274
 H        -0.6943855020        0.9079780223       -4.3711164792
 H        -1.3064649516        0.8176567681       -6.0758078079
 H         2.1056190310       -5.5940169315       -7.8782168694
 H         2.1996864843       -4.5554778261       -9.2515388975
 H         1.6930975925       -6.3343203375       -9.4076474162
 H        -1.8349375883       -5.3164207817       -9.4664880655
 H        -0.7213128129       -6.5142250517       -9.8508908871
 H        -0.4783658480       -4.9701732323      -10.5239312409
 H        -2.6210485645       -7.2223801566       -2.2803132178
 H        -1.4259938174       -8.1631576335       -3.0874207552
 H        -2.9483440887       -8.7584775804       -2.7124366689
 H        -2.9660137394       -9.3290352849       -5.1592822076
 H        -1.3733525783       -8.6970701653       -5.7587864674
 H        -2.8375628608       -8.0735557719       -6.5231007712
 H        -9.4060756581       -2.3505756075       -5.8891476161
 H        -7.7549324193       -2.1977507459       -5.6643439091
 H        -8.7159251043       -3.1082971588       -4.5367467766
 H        -8.9685277214       -6.2167346774       -6.6524856756
 H       -10.3056882174       -5.0739284824       -6.1356869403
 H        -9.1417594350       -5.7317692366       -4.9966979200
 H        -6.8999206285       -5.2808416351      -11.6928342322
 H        -6.3009040460       -4.9227290513      -13.3018486047
 H        -7.3138855580       -3.7635773483      -12.5474924705
 H        -3.2488291081       -4.3077520969      -11.5526071737
 H        -4.1991629026       -5.3891992788      -12.5386742298
 H        -4.3209407347       -5.4975750638      -10.6727338459
 H        -2.1395576463        0.6111157914      -15.1778045576
 H        -3.8079953958        1.5343404067      -15.2776548999
 H        -2.7103867461        1.9171975367      -16.3753493635
 H        -4.8821476982        0.0853765312      -18.6066721188
 H        -4.6566836006        1.4673242087      -17.9020268127
 H        -5.6255627145        0.1540021052      -17.0458269756
 H        -0.6503941574       -2.1747659108      -22.1303296301
 H        -1.4771844203       -1.7482833942      -20.6793263797
 H        -0.1887400013       -2.9343815452      -20.4531486419
 H         2.0708430972       -2.1455156876      -21.6396675571
 H         1.9998490412       -2.3247933338      -19.7986381717
 H         2.7474948397       -0.8783300981      -20.6056972028
 H        -0.6177070925        2.0516742286      -26.2782957746
 H         0.6588083734        1.8569773748      -27.3354185364
 H        -0.0113267074        3.4486033742      -27.2436503922
 H         2.7858747417        4.1942298446      -26.6428079967
 H         2.8733777117        2.4476830405      -26.8880177819
 H         3.4642298674        3.2371826086      -25.3518794612
 H        -2.2217542673        6.5528239651      -19.2278009121
 H        -1.6554223155        5.0198056667      -19.6664662369
 H        -2.8435418185        5.9265723379      -20.6879401405
 H        -0.3124411178        8.6681306560      -21.3578842813
 H        -1.7692697853        8.6275097895      -20.3625118045
 H        -1.9642615066        8.2605653137      -21.8320329933
 Na       -4.4361472420       -3.5088568549       -3.5499984642
 Na        0.5943752904        2.5801508805      -21.0631425186
