232

 C         1.5805720936        7.5801734460      -19.5164127356
 C         0.4640684409        6.5379975221      -19.6070054974
 O         0.3548542428        5.6952608615      -18.7483117772
 C        -0.5941511053        6.5583714036      -20.8561550055
 C        -0.0985541307        5.5509834313      -21.9520578295
 O        -0.2292370817        4.3500788685      -21.9020376427
 C         0.4316192638        6.2804427033      -23.1953941399
 C         1.2640739581        5.4318841349      -24.1992477627
 C         0.3452559933        4.5554467330      -25.1358744032
 O        -0.6156423647        5.0553555564      -25.6258527707
 C         0.9403686940        3.1560020632      -25.4701742739
 C         1.0579400225        2.2149128268      -24.2586184249
 O         1.6124679127        2.4880958044      -23.1960585481
 C         0.4460942227        0.8157159311      -24.3877060219
 C         0.8866169976       -0.1446095755      -23.3030488024
 C         0.1567670020       -0.0171447002      -21.9447160533
 O        -0.5708157506        0.9551820069      -21.6891178088
 C         0.3856762161       -1.0546963776      -20.8280478585
 C         0.4735511486       -0.3057779371      -19.4483277665
 O         0.6870111394        0.8902379193      -19.3477530787
 C         0.1538915195       -1.1098694341      -18.2038322263
 C        -0.9149271086       -0.3739861045      -17.2118457215
 C        -2.3826865169       -0.2654146565      -17.7656533738
 O        -2.5973601999       -0.3341335671      -18.9816760155
 C        -3.5245241308        0.0538162899      -16.7268432284
 C        -3.7492878463       -1.3551301565      -16.0936159576
 O        -3.5211906996       -2.3668431538      -16.6907539223
 C        -4.3853237760       -1.2929837769      -14.6619382725
 C        -4.7288153054       -2.5926120794      -13.9795058930
 C        -4.8389591104       -2.4170263028      -12.4279049330
 O        -4.3787943798       -1.4611041658      -11.8735083117
 C        -5.3179171904       -3.7233146564      -11.7106087481
 C        -5.7866674448       -3.5251698034      -10.1844513390
 O        -5.0012855888       -3.6480501818       -9.2237217114
 C        -7.1230428183       -2.7638295855       -9.9922580787
 C        -7.4240290823       -2.5178522574       -8.4850537689
 C        -8.2124870323       -3.8991098239       -7.9095857986
 O        -8.8249237389       -4.5642127778       -8.6605338334
 C        -8.0235776278       -4.4123021544       -6.3012336239
 C        -6.5741939342       -4.7866938118       -5.8730782851
 O        -5.9267859672       -3.9431895830       -5.3335578723
 C        -6.1049982846       -6.2239337308       -6.1291486516
 C        -4.5879180075       -6.3839263250       -6.2225829496
 C        -4.0618680096       -6.5911714900       -4.7975567923
 O        -4.7074005779       -6.2998427605       -3.7839909854
 C        -2.6266825395       -7.2203215047       -4.4990323417
 C        -1.5246758502       -6.0960577829       -4.5231120151
 O        -1.8416538662       -4.9227435995       -4.2528869779
 C        -0.0913397140       -6.4996946230       -4.6233815539
 C         0.4580015284       -5.5911444780       -5.7781802210
 C        -0.3530584122       -5.5694144320       -7.0819716552
 O        -1.5052792148       -5.9276305981       -6.9147514205
 C         0.0827239530       -4.9733738882       -8.3934356406
 C        -0.0910495131       -3.3972862211       -8.0142646555
 O         0.8841206456       -2.7425294521       -7.7662468730
 C        -1.4874865789       -2.7723370033       -8.0768472448
 C        -1.5992499744       -1.4307037663       -7.1995886637
 C        -2.1923646923       -1.8106333688       -5.7895630496
 O        -3.0354882919       -2.7076412292       -5.6636552105
 C        -1.7907848145       -0.8953984034       -4.5545985003
 C        -3.1317951541       -0.5900826368       -3.7352260182
 O        -3.8238076798       -1.4924519326       -3.2467821094
 C        -3.7018636323        0.8106149630       -3.5023529185
 C        -4.0062308822        1.1110839430       -1.9881103881
 C        -2.8546739499        0.8162809134       -1.0336721562
 O        -1.7217470459        0.5987722221       -1.3639855240
 C        -3.3108664799        0.7116871902        0.5397783863
 C        -3.5930746796       -0.8004326461        0.7979293095
 O        -4.7335334426       -1.1555764569        0.9070527993
 C        -2.4516689463       -1.8067572614        0.8595766087
 C        -3.1474093607       -3.1847149907        0.9494054817
 C        -3.9725714271       -3.4452921874       -0.2934046008
 O        -3.4378739567       -3.6425989313       -1.3948668274
 C        -5.5243462615       -3.9732966513       -0.2051818428
 C        -6.3281811736       -3.0977350624       -1.2413367710
 O        -5.9600933078       -3.1928809462       -2.3792043878
 C        -7.4968751706       -2.1669985475       -0.7899038956
 C        -8.6136191672       -2.1669300978       -1.9048860318
 C        -9.5452767856       -0.8828166556       -1.7872686986
 O        -9.0384943124        0.1804074435       -1.9623423720
 C       -11.0340987054       -1.0211842428       -1.5620094550
 C       -11.5558813293       -2.1582472332       -2.5727986860
 O       -10.9023862132       -2.2658075803       -3.5907677687
 C       -12.9289820056       -2.8250062932       -2.4679834767
 C       -11.3389538604       -1.3730746572       -0.0977483087
 C       -11.9893338191        0.2145129501       -1.9275821815
 C        -5.4825554615       -5.4670031375       -0.6390582269
 C        -6.0953408062       -4.0219897720        1.2100155086
 C        -2.1316992649        1.2829528023        1.4436995904
 C        -4.5955879353        1.6081593519        0.9095109986
 C        -0.8982485455       -1.7480965624       -3.5820318860
 C        -1.0983361495        0.4423525357       -4.9734183933
 C         1.6047263784       -5.2896222678       -8.6187184086
 C        -0.7436641606       -5.3346598160       -9.5661976092
 C        -2.6337911238       -7.7223423202       -3.0267112856
 C        -2.3988934557       -8.4364428708       -5.4948234830
 C        -8.4190967786       -3.1513561573       -5.4772900991
 C        -8.9218717961       -5.5698766334       -6.0652472968
 C        -6.4907343968       -4.5553111454      -12.4845352785
 C        -4.0635657531       -4.6238846335      -11.5327506416
 C        -2.9672831212        1.1045563626      -15.6561281838
 C        -4.8243904184        0.4398741435      -17.4719613765
 C        -0.7203265058       -2.2456392063      -20.9939759000
 C         1.7586136662       -1.6369963171      -21.0492425680
 C        -0.0384972013        2.6694602894      -26.6774721898
 C         2.3622123613        3.4882578086      -26.1303255997
 C        -1.8922889019        6.1120998713      -20.2921275487
 C        -0.8785262926        8.0038509838      -21.2721150830
 H         2.5272072287        7.3440660229      -19.0657728180
 H         1.0281101379        8.2757587341      -18.9055420077
 H         1.7684609240        8.0638225425      -20.4691557593
 H         1.0905853556        7.1829643367      -22.9075060294
 H        -0.4475826333        6.6352933276      -23.7113692490
 H         2.0282039451        4.9087355422      -23.6510060237
 H         1.7831896944        6.2116244244      -24.7404360670
 H         0.5340766090        0.2840329831      -25.3195260725
 H        -0.6707254425        0.9988408031      -24.2605000768
 H         2.0067438970       -0.2299930974      -23.2485803974
 H         0.4787584849       -1.1157581099      -23.7095773276
 H         0.9994193449       -1.2208329900      -17.4926642547
 H        -0.2291937190       -2.1219871920      -18.5376530792
 H        -0.4994509773        0.6163302536      -17.0603145371
 H        -1.1214829776       -0.9019920421      -16.2397003522
 H        -5.3764162337       -0.8819145614      -14.8296075853
 H        -3.7242614970       -0.7151770002      -14.1107536517
 H        -3.9864510240       -3.3312965726      -14.0697998661
 H        -5.5847346885       -3.0464408216      -14.5179911842
 H        -7.8819910295       -3.3861333806      -10.2716883989
 H        -7.1464278888       -1.8911064318      -10.5447534115
 H        -8.0486275692       -1.6794118488       -8.1914104267
 H        -6.5024322768       -2.4707809042       -7.9423504802
 H        -6.5381079685       -6.5908086961       -7.0994177091
 H        -6.4478797219       -6.7693550805       -5.1892632448
 H        -4.1018273253       -5.6048540660       -6.9093071187
 H        -4.5467412061       -7.3535712136       -6.7443293040
 H        -0.0609412471       -7.5477300316       -4.9285657756
 H         0.5494235318       -6.2546869080       -3.7523460738
 H         1.4925423294       -5.5839801680       -5.9118305268
 H         0.3036891814       -4.5666913149       -5.3130218702
 H        -2.2233718101       -3.5154960539       -7.6916788522
 H        -1.7469490375       -2.6810852944       -9.1254860030
 H        -2.1157767646       -0.6312391444       -7.6261486726
 H        -0.5504756210       -1.1602209483       -7.1457867567
 H        -4.6018853121        0.8928493209       -4.0613692790
 H        -3.0370344581        1.5520686225       -3.9616644609
 H        -4.8986094379        0.5519147122       -1.5389758634
 H        -4.2841113944        2.1217483684       -1.8707748815
 H        -1.7353803891       -1.7259958416        1.6893044144
 H        -1.7797681503       -1.7715929504       -0.0076655712
 H        -3.7112553291       -3.3202585915        1.8725655157
 H        -2.4153875963       -4.0091047935        0.8798606272
 H        -7.1836597848       -1.1850821923       -0.5252019270
 H        -8.0043592221       -2.5785341030        0.1048906351
 H        -9.1818463775       -3.0813274812       -1.9223140804
 H        -7.8981640199       -2.1294764840       -2.8057374162
 H       -13.5465959913       -2.0067017787       -2.8726873131
 H       -13.3599151013       -2.9356316699       -1.4749922437
 H       -12.9664485210       -3.7900152344       -3.0712265997
 H       -10.9085354182       -2.3255373411        0.2550019746
 H       -12.4712958706       -1.4207569044        0.0582965538
 H       -10.9724423694       -0.5892201715        0.5132647136
 H       -11.8584025900        0.8972603061       -1.0555623913
 H       -13.0808654602        0.0032834744       -2.0377414804
 H       -11.5705653554        0.7607096464       -2.7434043641
 H        -6.4296024084       -6.0028101419       -0.4606652171
 H        -4.7776733620       -5.9793986670       -0.0367631461
 H        -5.2668991172       -5.5766576327       -1.6784127625
 H        -6.9011441173       -4.7236449637        1.1780800469
 H        -6.5682116527       -3.1392743452        1.8102230424
 H        -5.2982496370       -4.4426021968        1.8304783707
 H        -2.5598540156        1.4605859800        2.4671411031
 H        -1.6883162137        2.1672170911        0.9910744467
 H        -1.2893056996        0.6600083215        1.4283081613
 H        -4.9240376025        1.4229313539        1.9021158339
 H        -5.4880947882        1.4412532552        0.2705079163
 H        -4.2628948751        2.6255059552        0.8651774227
 H         0.0751817149       -2.0516903645       -3.9325676091
 H        -1.5788904503       -2.5911198956       -3.2532843885
 H        -0.7560472065       -1.2082788816       -2.5598851495
 H        -0.1925337496        0.1020136010       -5.5096033493
 H        -0.8889388903        0.9751570978       -4.0444025837
 H        -1.5772502206        1.1767443910       -5.6452862842
 H         2.1414397828       -4.4197018261       -8.9664277421
 H         1.7623128358       -5.9210841122       -9.5190444712
 H         2.1459323237       -5.8409252625       -7.8284849594
 H        -1.8221355114       -5.2306437489       -9.4186980059
 H        -0.6580961604       -6.3982312237       -9.7870774965
 H        -0.5007931526       -4.7767423477      -10.4729255573
 H        -1.9418232488       -7.2459103988       -2.2874684196
 H        -2.2663387452       -8.7917461199       -2.8950953578
 H        -3.5605908647       -7.6491545626       -2.4978163079
 H        -3.2846326857       -8.9967543986       -5.6087704391
 H        -1.6092914479       -9.0166369783       -5.0864232656
 H        -2.0878937918       -8.0600059662       -6.4705106005
 H        -9.4460746729       -2.7322081895       -5.5937996819
 H        -7.7387586316       -2.3022495404       -5.6519201115
 H        -8.3862005719       -3.2888149730       -4.4444665530
 H        -8.6672521649       -6.2925915870       -6.8425809746
 H        -9.9426417730       -5.3125632192       -6.4146207636
 H        -8.8410237053       -6.0316239370       -5.0801260386
 H        -6.8885799098       -5.3298464221      -11.8508165685
 H        -6.0115871905       -5.0114073084      -13.3384811108
 H        -7.3310493818       -3.8989698193      -12.8474091776
 H        -3.4493941316       -4.0619961284      -10.8098727959
 H        -3.7049726962       -4.6637011079      -12.5061487077
 H        -4.3827143633       -5.6487926879      -11.2357090994
 H        -2.1205356601        0.5974445549      -15.2118518567
 H        -3.8562257505        1.3308058400      -15.0410221773
 H        -2.6968882429        2.0269237330      -16.1117956677
 H        -5.2024107763       -0.2867110191      -18.2040228231
 H        -4.7158994483        1.2828876567      -18.1175814860
 H        -5.6577029518        0.5791042051      -16.7787567359
 H        -0.7455597379       -2.5260909957      -22.0351935847
 H        -1.7359128991       -1.9189155526      -20.7187577473
 H        -0.4706245209       -3.0395070854      -20.2579558571
 H         1.8619241836       -2.2050504766      -21.9374553100
 H         1.8789125801       -2.3573680533      -20.2173533113
 H         2.4816959470       -0.8889708950      -21.0365681216
 H        -1.0005795356        2.7809966558      -26.0801965722
 H         0.0999499924        1.5517942843      -26.7807143279
 H         0.1148050626        3.3251097931      -27.6497268705
 H         2.2281092301        4.1480745343      -27.0195413052
 H         2.8408500320        2.6155438610      -26.5599038043
 H         2.9868117512        4.0483860273      -25.4650935874
 H        -2.3171536924        6.8312281068      -19.5810950399
 H        -2.0319236426        5.1705028626      -19.7979948759
 H        -2.5632246813        6.1540370222      -21.1074869739
 H         0.0637328306        8.5322213820      -21.6930650221
 H        -1.1449362975        8.6004420242      -20.3748070311
 H        -1.6660446834        8.2146856374      -22.0088394382
 Na       -3.9707794289       -3.9154240587       -3.7933143210
 Na        0.7693872244        2.6243079145      -20.9653157493
