232

 C         1.6516430359        7.1808518189      -19.4181814370
 C         0.3968470252        6.2877708179      -19.6830003546
 O         0.3729192612        5.1311195689      -19.3274147788
 C        -0.5926405691        6.6549241457      -20.8059535006
 C         0.0451215439        5.9163845637      -22.1068544447
 O         0.0730685686        4.7341854425      -21.9264200241
 C         0.6025127892        6.5312954246      -23.3555729950
 C         1.2792386785        5.5598675020      -24.2700325779
 C         0.2541525169        4.6033740904      -24.9727674386
 O        -0.9452048041        4.8882865482      -25.0617947728
 C         0.7071741099        3.1592575061      -25.5821782147
 C         0.6098513996        2.1418044239      -24.3505633209
 O         1.3273733620        2.4197446344      -23.4079555505
 C        -0.1035282029        0.7766559182      -24.4428108274
 C         0.4172164418       -0.2676176160      -23.4378019703
 C        -0.0838447010        0.0056067950      -22.0272288776
 O        -0.7375734631        1.0587492495      -21.8461906122
 C         0.2141602387       -1.0804228547      -20.9914175698
 C         0.3191591830       -0.3414359201      -19.5063855479
 O         0.6843349430        0.8299508409      -19.5128955949
 C         0.0093594244       -1.1677850968      -18.2500239367
 C        -0.8459902406       -0.3091419414      -17.2574253153
 C        -2.2920386721       -0.1779148192      -17.7403422781
 O        -2.5095447125       -0.3101885530      -18.8915873920
 C        -3.4589092287        0.1218588047      -16.7307431731
 C        -3.8326530908       -1.1975008781      -15.9073489459
 O        -3.5042304438       -2.2172482428      -16.4255959258
 C        -4.5257850864       -1.0494181145      -14.5693827107
 C        -4.8312189286       -2.3863072443      -13.8753290062
 C        -5.1334600140       -2.4227057249      -12.3334871756
 O        -5.1003869056       -1.4662457791      -11.6244785751
 C        -5.4512522184       -3.8204380241      -11.5553706726
 C        -5.7534386012       -3.5159958921      -10.0674546591
 O        -4.9550576470       -3.7628638456       -9.2101348669
 C        -6.9633742887       -2.6784036167       -9.7916998394
 C        -7.5709091623       -2.7186245089       -8.3511943792
 C        -7.9773563503       -4.1435677024       -8.0710320633
 O        -8.3886166151       -4.9310212937       -8.8868924838
 C        -7.8090698339       -4.4526063261       -6.4386884740
 C        -6.3400300782       -4.7103493283       -6.1608049741
 O        -5.9129745271       -3.9428582814       -5.3223971615
 C        -5.4793070312       -5.8345313900       -6.8279442304
 C        -4.1433484268       -6.1101462776       -6.1535010559
 C        -4.0715058184       -6.7144475514       -4.7361888460
 O        -4.9896551391       -6.7694483639       -3.9029883832
 C        -2.7152776973       -7.3202481128       -4.2828198482
 C        -1.5207853559       -6.2567187299       -4.1928161344
 O        -1.7222576469       -5.1372671591       -3.7567778241
 C        -0.0255639121       -6.5964145297       -4.6633792861
 C         0.6020762930       -5.7045880909       -5.7838180171
 C        -0.3320791506       -5.3963749413       -6.9877171149
 O        -1.5054771951       -5.6367072704       -6.8562338371
 C         0.1819631872       -4.6329859629       -8.1922968887
 C        -0.1856392616       -3.1088858902       -7.8716717713
 O         0.8362156120       -2.4887828082       -7.5028037331
 C        -1.5049487846       -2.4152446035       -8.0687942966
 C        -1.7536399677       -1.1021515179       -7.1232591589
 C        -2.2020442649       -1.7381362564       -5.6408759061
 O        -2.7328693001       -2.7964947246       -5.5290644782
 C        -1.8755641518       -0.7762292963       -4.4253959248
 C        -3.2443628486       -0.5295475743       -3.6472689619
 O        -3.9571117464       -1.3891546279       -3.2556326098
 C        -3.7020509079        0.9642766162       -3.2843276502
 C        -4.2876831670        0.9518026451       -1.8951795260
 C        -3.1225365759        0.7548717925       -0.9026082017
 O        -2.0724686054        0.3398626059       -1.3259689158
 C        -3.3997450436        0.7208333081        0.6490034050
 C        -3.7853997603       -0.8116982444        1.0110778547
 O        -4.8730344383       -1.1625425475        1.3380987595
 C        -2.5581662499       -1.7356651147        0.8231890162
 C        -3.0633503831       -3.2300996655        0.8832531199
 C        -3.7941048353       -3.6432401225       -0.4680382751
 O        -3.1733959471       -3.8553038016       -1.4838699947
 C        -5.3005435921       -3.9900043618       -0.4180957644
 C        -6.0938987863       -3.0602701205       -1.5220221350
 O        -5.8477664805       -3.0473619675       -2.6841203712
 C        -7.1820512446       -2.1417333351       -1.0619647029
 C        -8.1889288106       -1.9696948783       -2.3004968004
 C        -9.2352210666       -0.8318230949       -1.9625784299
 O        -8.7497398773        0.2528576423       -1.6800704472
 C       -10.8105331803       -1.2298443970       -1.8295434190
 C       -11.3650612025       -2.2757917194       -2.8438394363
 O       -10.7019528792       -2.5905280103       -3.8565622579
 C       -12.7771642555       -2.8941882379       -2.4879985287
 C       -10.7444577124       -1.7896247687       -0.3735349543
 C       -11.6440166390        0.0196234249       -1.8212986804
 C        -5.6391477190       -5.3880636421       -1.0783297871
 C        -5.9037298146       -4.1130401428        1.0193910007
 C        -2.1073955831        1.0469134576        1.4359723784
 C        -4.4381205613        1.6774429232        1.1038270266
 C        -0.9674823562       -1.6886132063       -3.4730311100
 C        -1.1176987628        0.5037640701       -4.7603746314
 C         1.6363493696       -5.0382103893       -8.6228797465
 C        -0.7698666803       -4.9515583326       -9.3957181506
 C        -2.7511508931       -7.7354599967       -2.7884579386
 C        -2.4824722826       -8.6158566009       -5.2454053707
 C        -8.3021746323       -3.2489266726       -5.6387922740
 C        -8.7554386340       -5.6680751551       -6.0349484478
 C        -6.6049744681       -4.6769954777      -12.2195672088
 C        -4.1074082357       -4.6571876746      -11.6381853579
 C        -3.0217737087        1.4292091437      -15.9203698590
 C        -4.7184725256        0.3434668467      -17.5596144275
 C        -0.9587446311       -2.0375899471      -21.0625108637
 C         1.5985465403       -1.7980682314      -21.0105144643
 C        -0.2691279800        2.9225172318      -26.7354341262
 C         2.1896843546        3.0235160021      -26.0336439724
 C        -1.9758788223        6.0077911490      -20.5530575310
 C        -0.9125273660        8.1944510324      -20.8522193670
 H         2.1695944336        6.9468016812      -18.4853192894
 H         1.2769690256        8.1541648539      -19.3144531662
 H         2.3226515066        7.1077258083      -20.2411639127
 H         1.3519664433        7.2461094781      -22.9114102816
 H        -0.0809367122        7.1190410075      -23.8692316813
 H         2.0937951522        5.0680904836      -23.7644938773
 H         1.8476533367        6.1288316227      -25.0744014511
 H         0.1191147629        0.3110915638      -25.5057739050
 H        -1.1685936714        0.7973272362      -24.2727333327
 H         1.5560539638       -0.1864061555      -23.3351134873
 H         0.1281679716       -1.3197051408      -23.7148294430
 H         0.9773841549       -1.3477573178      -17.6932941175
 H        -0.5484597770       -2.1584582375      -18.2652293369
 H        -0.5573889288        0.6941961736      -17.1510652457
 H        -0.8522964743       -0.7935843195      -16.2836756301
 H        -5.4250037097       -0.4772804026      -14.8939711851
 H        -3.9388436734       -0.3725444121      -13.9445508866
 H        -3.8687472551       -2.9584204090      -13.8685655784
 H        -5.5993792676       -3.0479697763      -14.3920335217
 H        -7.7470957257       -2.9756114528      -10.3731064807
 H        -6.7300575663       -1.6592529463      -10.0589997360
 H        -8.3867312149       -2.0251717117       -8.3027493153
 H        -6.8995250849       -2.4701501882       -7.5412907788
 H        -5.3747808712       -5.4474352615       -7.8499723007
 H        -6.0974902771       -6.7703914566       -6.9090769025
 H        -3.5719777208       -5.1708849690       -6.1523235203
 H        -3.5970878261       -6.7460817816       -6.8054209784
 H         0.0456942273       -7.5894049454       -5.1291820107
 H         0.5345412803       -6.3816912311       -3.7763546419
 H         1.5858450494       -6.0648328687       -5.9979081371
 H         0.8947861170       -4.6342476523       -5.4377489763
 H        -2.4458912711       -2.9720317959       -8.0299551765
 H        -1.3956743736       -2.0450926009       -9.0561220776
 H        -2.5907212426       -0.5046304608       -7.5894752879
 H        -0.8119013472       -0.5872626401       -7.0694293233
 H        -4.2906196340        1.4231412803       -4.1085214081
 H        -2.7833811258        1.5644822555       -3.2627165667
 H        -5.0308951400        0.0281897656       -1.7522099345
 H        -4.8293482815        1.8328938928       -1.6312653068
 H        -1.8339931634       -1.6363975914        1.6606257790
 H        -2.0447713174       -1.5923892473       -0.1249909612
 H        -3.8685787016       -3.2070948851        1.6354383761
 H        -2.3370537891       -3.9913540939        1.2328092737
 H        -6.7812881921       -1.1682959063       -0.7233389964
 H        -7.8791145676       -2.4196320870       -0.2437130796
 H        -8.5543209362       -2.9668041795       -2.7326510768
 H        -7.6851239421       -1.5587778307       -3.2600318898
 H       -13.4768134554       -2.0512731521       -2.6738789854
 H       -12.9479136102       -3.0732335551       -1.4026303140
 H       -12.9725246127       -3.7905506192       -2.9993742895
 H       -10.5674525969       -2.8849639634       -0.2968284973
 H       -11.8297981662       -1.6938858837       -0.0270363754
 H       -10.1727494510       -1.2731980600        0.3104643951
 H       -10.9461420020        0.8270317401       -1.4238896079
 H       -12.5950574255       -0.0983988521       -1.2024807050
 H       -12.0686386221        0.3023480664       -2.7574400649
 H        -6.7451485082       -5.5580208558       -1.2186088215
 H        -5.4366735044       -6.2292963921       -0.3657848060
 H        -5.0903558600       -5.5134105753       -2.0169780356
 H        -6.8356058794       -4.6601803599        1.0827241406
 H        -6.1536805778       -3.1214299349        1.3680100690
 H        -5.2920447458       -4.7114564893        1.7089875133
 H        -2.1003416368        0.4697996614        2.3336138828
 H        -2.1297694571        2.0966635925        1.7237175549
 H        -1.1814118650        0.8180558583        0.9233429287
 H        -4.5200217596        1.7510937875        2.1592363248
 H        -5.4364096370        1.3757189249        0.8066131989
 H        -4.0557470108        2.6629963426        0.8288131819
 H        -0.1927815221       -2.1154249638       -4.0237325861
 H        -1.5073495058       -2.5544622121       -3.0812191269
 H        -0.6605091983       -1.1117065508       -2.5744060205
 H        -0.1993126855        0.3288603431       -5.3707986446
 H        -0.6750496675        0.9597174121       -3.9029884212
 H        -1.7468560410        1.2665110728       -5.1931244933
 H         1.7675413836       -5.3029469273       -9.6224611495
 H         2.1205771643       -5.8066023538       -8.0253774517
 H         2.3427462880       -4.2099205102       -8.4449173503
 H        -1.8549550300       -4.7702337564       -9.2377745865
 H        -0.6020081868       -5.9199435235       -9.8858452904
 H        -0.6432113715       -4.2431593796      -10.2384618111
 H        -2.0270684450       -8.4793251604       -2.4125873367
 H        -3.7242793159       -8.2489109268       -2.5508265118
 H        -2.8083068307       -6.9069679488       -2.1324650238
 H        -3.3991472934       -9.1807014583       -5.4585740434
 H        -1.6748540581       -9.2187456264       -4.8285933953
 H        -2.2389932762       -8.1405434285       -6.1828584527
 H        -9.3059523924       -2.8224689626       -5.9956450666
 H        -7.5867810192       -2.4340605998       -5.4354231577
 H        -8.5329767571       -3.5051258748       -4.6357655459
 H        -8.6178426638       -6.4939816973       -6.7022158614
 H        -9.7464435011       -5.3205211959       -6.2662428195
 H        -8.6988739091       -5.9122772676       -4.9928409826
 H        -6.5308777467       -5.6898569204      -11.7344375118
 H        -6.3785096794       -4.9201297010      -13.2208692253
 H        -7.6687838514       -4.2427301970      -12.0554332596
 H        -3.3631367591       -4.0273299407      -11.2881699858
 H        -4.2138782589       -5.1846879694      -12.5488989340
 H        -4.2609080780       -5.4524121327      -10.8472444889
 H        -1.9681062267        1.2551433966      -15.5075551841
 H        -3.6752618064        1.5100438698      -15.0893156197
 H        -2.8795883199        2.1785563274      -16.6154676172
 H        -4.9505593427       -0.5035661293      -18.2449268632
 H        -4.6393980532        1.2979329461      -18.1000911274
 H        -5.7216003879        0.5535594183      -17.0712338636
 H        -1.2504939064       -2.2112614667      -22.1435154669
 H        -1.7607859317       -1.7058793160      -20.4862972575
 H        -0.7002702803       -3.0377144302      -20.6636441583
 H         1.8255094845       -2.3544368780      -21.8971215359
 H         1.5361826475       -2.5643948846      -20.1733438967
 H         2.4056804044       -1.1072767245      -20.9253737702
 H        -1.1886829639        2.3922150033      -26.3254475358
 H         0.3680845795        2.4295979636      -27.5229124987
 H        -0.6496409489        3.9039356831      -27.0302406198
 H         2.3015860798        3.8903291981      -26.6668321967
 H         2.3962359465        2.1954437787      -26.7396737427
 H         3.0049767563        3.0756791280      -25.3292107405
 H        -2.4032749963        6.3720598151      -19.6200496452
 H        -2.1973315513        4.9208078367      -20.5727053224
 H        -2.6111276874        6.3535930134      -21.3313858451
 H        -0.0197839134        8.8203309696      -20.9988326952
 H        -1.1730539381        8.4417664120      -19.8721528923
 H        -1.6450989302        8.4869769972      -21.6507781843
 Na       -4.0224775871       -3.8547590307       -3.7549846228
 Na        0.6502063827        2.7108519354      -21.0367425447
