232

 C       -21.7668302907       -7.4632539014       -3.1933981755
 C       -20.8495462836       -6.2974375302       -3.4242342560
 O       -19.8005565009       -6.1974881834       -2.8315090621
 C       -21.3188241393       -5.1926127189       -4.5217964314
 C       -20.1470268891       -4.2155152156       -4.6571814499
 O       -19.8355575751       -3.3716744299       -3.8305099677
 C       -19.4189642968       -4.3643361783       -5.9622804384
 C       -18.3137727440       -3.2890055138       -6.1318883155
 C       -17.2873377873       -3.3176667701       -4.9479778444
 O       -16.9852315383       -4.4057553904       -4.4873576085
 C       -16.5665602080       -2.0345394716       -4.4795378702
 C       -16.3279033645       -2.3755299376       -2.8858768409
 O       -17.3555781417       -2.3551451845       -2.2385867919
 C       -14.9713139625       -3.0430652555       -2.5009366223
 C       -14.7088796893       -3.4197363494       -0.9870951914
 C       -15.3479083343       -4.8117567834       -0.7934392307
 O       -16.4472518553       -5.0846373929       -1.2865461998
 C       -14.5616228561       -5.8613774244        0.0787737342
 C       -13.3661351033       -6.3786347749       -0.8310552596
 O       -12.7740865922       -5.5459056483       -1.5212627270
 C       -12.9402547101       -7.8635848731       -0.8005395530
 C       -11.5263568446       -7.9554085097       -1.5373509432
 C       -11.4207821800       -9.1796597253       -2.4098846469
 O       -12.4288714258       -9.6454074133       -2.9582239286
 C       -10.0470599814       -9.9823976983       -2.6364712049
 C        -8.8373273666       -8.9634035785       -2.6947578571
 O        -7.9664332067       -9.0339538838       -1.8556541763
 C        -8.8093047070       -7.9008624977       -3.7871369297
 C        -7.4394036944       -7.1321944230       -3.8797774898
 C        -7.4981838529       -5.7022617180       -4.4408277280
 O        -8.4634562716       -5.1489053933       -4.9463496407
 C        -6.0776926762       -4.9180478632       -4.3591997869
 C        -5.2836903885       -5.5782314514       -5.5325927587
 O        -4.7868965876       -6.7095897584       -5.4165762699
 C        -5.2165391015       -4.8187917506       -6.9255730921
 C        -4.2211116900       -5.5672019105       -7.9294442090
 C        -4.0449962740       -4.4314157919       -8.9992284810
 O        -4.9653388614       -3.8204989660       -9.4154127307
 C        -2.5133141358       -3.8087150866       -9.2935441894
 C        -1.7801785167       -5.0420429204      -10.0000558211
 O        -0.8251031096       -5.5963069569       -9.3982527611
 C        -2.2014902279       -5.5412639337      -11.4546591525
 C        -0.8155857016       -5.9396582107      -12.0965176955
 C         0.0937102025       -4.7052100530      -12.1361436237
 O        -0.3073439072       -3.6635635604      -11.6871389459
 C         1.6559869501       -4.8562823701      -12.4616545853
 C         2.2366119413       -3.5437774888      -13.0433156524
 O         2.3540778879       -3.3635880844      -14.2319773021
 C         2.6494431440       -2.4543448701      -12.0797260433
 C         3.8310717720       -1.7194076032      -12.7107162848
 C         3.7019808333       -0.1148763488      -12.5980951052
 O         2.6355010028        0.3634787794      -12.7196319217
 C         5.0041200735        0.7645647219      -12.2955317690
 C         5.0506402172        1.7887562207      -13.4901138029
 O         5.8818811750        1.5906876681      -14.3924818549
 C         3.9613171013        2.7813980523      -13.5340974732
 C         4.1418560284        4.1114749277      -12.8126158067
 C         5.4231816679        4.8357441502      -13.1932707325
 O         6.2586025696        4.3347791530      -13.8978703796
 C         5.6092182582        6.3145390036      -12.7390703007
 C         6.1737423211        7.0637821525      -13.9672391875
 O         5.5297871297        7.5530465433      -14.8608853305
 C         7.7766554020        6.9010149488      -14.0616224860
 C         8.2845034694        7.0846677561      -15.5500555430
 C         7.4510572455        6.2763339911      -16.5911442766
 O         7.0884991169        5.1906296296      -16.2646793385
 C         7.0346108815        6.8107495914      -18.0070943948
 C         8.4224831655        7.2940191619      -18.7346058224
 O         9.1906008593        7.9013940694      -17.9841284403
 C         8.6329723708        7.2294230304      -20.2877275233
 C         9.6896534315        6.2092357492      -20.7847132280
 C         9.0948737274        4.7419519466      -20.5335152182
 O         8.6106751413        4.4599745988      -19.4500586696
 C         9.2516850170        3.6944993368      -21.5933068358
 C         8.6635392764        2.2937736433      -20.8787724230
 O         7.6439210504        1.7133120955      -21.2080266996
 C         9.5457887393        1.6507961029      -19.8208950962
 C         9.0531333187        0.3675226166      -19.1199093992
 C         7.7198035760        0.8666766085      -18.2948147446
 O         7.8742715921        1.6409550797      -17.3703701797
 C         6.3238041697        0.2485130150      -18.7747580231
 C         5.2387304428        1.3660553071      -18.9931680985
 O         5.0267759375        2.2569665643      -18.2336532883
 C         4.4295016339        1.4418040552      -20.3171376763
 C         6.4698009345       -0.5951372705      -19.9951758731
 C         5.6996872635       -0.5330454598      -17.5389048440
 C         8.2594126450        3.9703903485      -22.7233243068
 C        10.7340229266        3.5592322811      -22.0618556579
 C         6.2229592161        5.7399253227      -18.7275653573
 C         6.1551244118        8.1242065491      -17.8078819684
 C         4.2696072749        7.0182085601      -12.2469994716
 C         6.5656695791        6.1683903561      -11.4911422516
 C         4.4921497385        1.3389131795      -10.8979872469
 C         6.2361403117       -0.0232164075      -12.0081170645
 C         2.2881160015       -5.1958760065      -11.0737508841
 C         1.8783925633       -5.9592509438      -13.5105999549
 C        -2.5763657484       -2.6132661224      -10.2220126550
 C        -1.8640826440       -3.5311206186       -7.8766586306
 C        -6.3702064714       -3.3958568796       -4.5386898441
 C        -5.3114113466       -5.1655076544       -3.0166256039
 C        -9.8811655308      -10.8675879800       -1.3560555162
 C       -10.1372989891      -10.9363253520       -3.9527225459
 C       -13.6954151281       -5.3320375398        1.2142808181
 C       -15.5187142737       -7.0194784111        0.5240737467
 C       -15.3856700215       -1.9167129588       -5.3938485788
 C       -17.5233549349       -0.8870898805       -4.6459995450
 C       -21.7308047486       -6.0614489731       -5.7569893030
 C       -22.6720595201       -4.6023207086       -4.0620298470
 H       -22.7858664443       -7.2638158006       -3.3739894810
 H       -21.4974895883       -7.8874675297       -2.1869345063
 H       -21.4060393172       -8.1530544028       -3.9671144237
 H       -20.0783534761       -4.4252746506       -6.7774735519
 H       -18.9467574779       -5.3448759432       -5.9719939123
 H       -18.9050996697       -2.3854420663       -6.1115405596
 H       -17.8350188452       -3.4492513391       -7.1054195477
 H       -14.2112121663       -2.3280029742       -2.8341671577
 H       -14.8337808352       -3.9074954095       -3.2421159030
 H       -15.3300574884       -2.6825231946       -0.3928150870
 H       -13.7372263758       -3.4248445702       -0.5829194977
 H       -13.6984023010       -8.5783100949       -1.2463819840
 H       -12.8733054379       -8.1996031054        0.2814052813
 H       -10.7795008226       -7.6483632154       -0.8531459568
 H       -11.5209173066       -7.1530929771       -2.3011650724
 H        -9.6049641226       -7.1361010614       -3.6777505225
 H        -8.9408799455       -8.3388163827       -4.7626281836
 H        -6.6835736622       -7.6748704742       -4.4844183240
 H        -7.0695071917       -7.1227159418       -2.8804455436
 H        -4.8532264879       -3.7532829713       -6.8108226482
 H        -6.2443927236       -4.7125008186       -7.4257148362
 H        -4.5124005055       -6.5135352414       -8.4360461987
 H        -3.2841392028       -5.8292837579       -7.4542475649
 H        -2.7994186516       -4.7690757381      -12.0323635065
 H        -2.6787251807       -6.4438734550      -11.2939395384
 H        -1.0908936817       -6.3855669117      -13.0461588235
 H        -0.3117386154       -6.6277867562      -11.4491484122
 H         2.9769412867       -2.8526091779      -11.1109179123
 H         1.7099006551       -1.8660075765      -11.9986151172
 H         3.8497257997       -1.8548510946      -13.7919817534
 H         4.7145438950       -2.2049737153      -12.3713765540
 H         2.9922847614        2.3736190026      -13.3637610136
 H         3.8220449701        3.0768771620      -14.6033231190
 H         3.8357496737        4.0209234536      -11.7856945649
 H         3.3479497768        4.7692805466      -13.1437862278
 H         7.9386599742        5.8795952506      -13.8247787722
 H         8.3490541129        7.5324989875      -13.3382243450
 H         9.2691227491        6.9053062111      -15.5015341736
 H         8.1961012105        8.1427332097      -15.9225114009
 H         9.0272998237        8.2199863632      -20.5348861890
 H         7.7091019599        6.8853951694      -20.7400042341
 H        10.5863283894        6.2623452765      -20.1238208648
 H         9.9208389566        6.3537979050      -21.8392520525
 H         9.7679256149        2.3671436237      -19.0164257527
 H        10.5089129820        1.5098190548      -20.3393905778
 H         9.7932378884        0.0181815556      -18.4413774808
 H         8.7789087623       -0.5318151459      -19.7117349652
 H         3.6937914165        0.7016788814      -20.2680792667
 H         5.1973055621        1.2704720746      -21.1331412468
 H         3.8815469969        2.4376640617      -20.5159801925
 H         5.5223113417       -0.9336279880      -20.3054020923
 H         7.1046693027       -1.4830889935      -19.8242517761
 H         6.8786995822       -0.0045073462      -20.7640853582
 H         4.8241133462       -0.0410477471      -17.1091085465
 H         6.3856323107       -0.6426744372      -16.7126149166
 H         5.6232222880       -1.5875297837      -17.8311159795
 H         7.2202906493        4.1451886465      -22.4771217110
 H         8.3645397376        3.1072832938      -23.4987313436
 H         8.6581020382        4.9139163318      -23.2449645585
 H        11.0336893986        2.6201294393      -22.6103398970
 H        11.4369994366        3.6736065636      -21.1667630322
 H        10.9406422087        4.4406139278      -22.7363461745
 H         5.4324825470        5.2067227205      -18.2646274798
 H         6.8563272632        4.9125757174      -18.8799088266
 H         5.9193150430        6.1024029908      -19.7039841266
 H         6.8132420950        8.7792976442      -17.2956145540
 H         5.2439223870        7.9619193579      -17.1376501551
 H         5.8514251137        8.6205498386      -18.7028683289
 H         4.6303019371        8.0036629819      -11.8716541377
 H         3.7561504645        6.4099123560      -11.5831445357
 H         3.6626822775        7.1005995345      -13.1170382653
 H         6.1055925091        5.4860932244      -10.7799156374
 H         6.8718507685        7.0947655903      -11.1047748028
 H         7.4995726580        5.7056023470      -11.7912844728
 H         5.1243395082        2.0393675373      -10.4398002814
 H         4.4608685075        0.4800340280      -10.2312609627
 H         3.5001432694        1.7840848056      -10.8947530687
 H         6.1433354707       -0.6417878118      -11.1433111850
 H         7.0996657691        0.6816264580      -11.9843303312
 H         6.6974759410       -0.6468445066      -12.7739765789
 H         1.8734923262       -4.5589201996      -10.3381904396
 H         3.4035265827       -5.2821372740      -10.9298606339
 H         1.8408536183       -6.1099824511      -10.7512889724
 H         0.9524668576       -6.4898898832      -13.7021151529
 H         2.6880080896       -6.6283114056      -13.1630070463
 H         2.2228202500       -5.5530961062      -14.5257843618
 H        -3.3208732525       -1.9533924489       -9.9463350457
 H        -2.9339045150       -2.9415727830      -11.1560517320
 H        -1.6271950493       -2.1501461790      -10.3584851095
 H        -0.8161568944       -3.2798610437       -8.1382504408
 H        -1.8723530706       -4.3711875274       -7.2628863462
 H        -2.2530993550       -2.6105263803       -7.4846608274
 H        -7.0424650601       -3.1352986751       -5.3574388990
 H        -5.3755070474       -2.9174256577       -4.7057793392
 H        -6.8120497139       -3.0077118880       -3.5380896579
 H        -5.9354475140       -4.7198272861       -2.1980163343
 H        -4.3325321183       -4.6374329591       -2.8801858047
 H        -5.1778628277       -6.1749141092       -2.7202248142
 H       -10.4346127755      -11.7830833536       -1.4161894190
 H       -10.1500265807      -10.2616570301       -0.4458665283
 H        -8.8328974947      -11.1281295864       -1.2228856375
 H       -11.0081301704      -11.5643601602       -3.8497240827
 H        -9.1733389258      -11.3651140430       -3.9677252073
 H       -10.3137026670      -10.3031381550       -4.8547988176
 H       -14.3975821358       -4.7375701587        1.9284739170
 H       -12.8946886423       -4.6859678207        0.9513278473
 H       -13.2211704961       -6.1660055641        1.8133813901
 H       -15.6332708005       -7.8301993766       -0.2536784641
 H       -16.5958623609       -6.6740150815        0.6928773214
 H       -15.0598763244       -7.5158453763        1.4542242713
 H       -14.6663383325       -2.7424277988       -5.2621129419
 H       -14.9272595643       -0.9839766414       -5.2946836807
 H       -15.6237249436       -2.0733518139       -6.4193710174
 H       -18.5869176846       -1.1581342134       -4.3036784082
 H       -17.5970691344       -0.5482382639       -5.6621639935
 H       -17.2138907031       -0.0221225463       -3.9629943745
 H       -20.8880826804       -6.6038207505       -6.1302035447
 H       -22.0306115353       -5.4610844409       -6.5267240146
 H       -22.5023847297       -6.7889531107       -5.5285664994
 H       -23.3335368783       -4.2873881072       -4.9111383900
 H       -22.4182928578       -3.7394411418       -3.4692492928
 H       -23.1979242232       -5.3343746539       -3.5106175243
 Na      -18.3161064802       -4.4160299672       -2.4997278977
 Na        6.2438796080        2.9097566454      -16.2602635035
