232

 C         1.4468584723        6.7558191657      -18.9512150259
 C         0.6006646062        5.8918311545      -19.7823311861
 O         0.5296740523        4.7027978699      -19.5379546284
 C        -0.3590009835        6.3825095125      -20.9684058520
 C         0.1946624085        5.7618824943      -22.2483929999
 O         0.2406472757        4.5763907690      -22.3534817450
 C         0.5531707956        6.5714978521      -23.4737154454
 C         1.1371609338        5.6612742166      -24.4673235214
 C         0.0834542705        4.6132731407      -24.8287935338
 O        -1.0872011377        4.8032549627      -24.5260297484
 C         0.5451927837        3.2682058829      -25.4794776200
 C         0.5461819200        2.1544138821      -24.2866550806
 O         1.2364086483        2.3561917979      -23.2950730657
 C        -0.2045181342        0.8173379201      -24.6393928172
 C         0.0418081100       -0.3162291166      -23.5586785692
 C        -0.4383708973        0.0695276713      -22.0935598196
 O        -1.0893395706        1.0982999464      -21.9680455284
 C         0.0106069551       -0.9019767630      -20.9475291785
 C         0.1437477380       -0.1838351758      -19.5391828740
 O         0.3565871585        1.0191626663      -19.4659420411
 C         0.0429993184       -1.0311501889      -18.2391715982
 C        -0.9091779579       -0.5579715778      -17.1703441921
 C        -2.3921082983       -0.3373879443      -17.6538044077
 O        -2.5468392636       -0.1826834457      -18.8396880581
 C        -3.5352958239        0.0432991902      -16.6945345978
 C        -3.7162556466       -1.1840065016      -15.7111033931
 O        -3.1833952553       -2.2100432550      -15.9654245916
 C        -4.4138781237       -0.9515191273      -14.4278614845
 C        -4.7691669331       -2.3627988617      -13.9183971790
 C        -5.2377429539       -2.2640706261      -12.4666714572
 O        -5.4840315205       -1.1943475892      -11.9995829233
 C        -5.3859933817       -3.6203367908      -11.7497946717
 C        -5.7035342347       -3.4539538188      -10.1512883137
 O        -5.0303791033       -3.9506654443       -9.2686747344
 C        -6.9006332488       -2.5817328979       -9.8118904796
 C        -7.3743741766       -2.7408448010       -8.3828052277
 C        -7.5922579613       -4.2577317417       -8.0281900221
 O        -7.5539911276       -5.2004682984       -8.7590605891
 C        -7.6504719092       -4.5765864922       -6.4908643386
 C        -6.2376803283       -4.6180186065       -6.0676102820
 O        -5.6927802799       -3.8398906252       -5.3516112963
 C        -5.5172214118       -5.8078971082       -6.6891400380
 C        -4.1155493499       -6.1416808285       -6.2530042914
 C        -4.1134544264       -6.7648543708       -4.8503275070
 O        -5.1361445032       -6.6412514987       -4.1619526843
 C        -2.6773301375       -7.3765234857       -4.2586672823
 C        -1.5576715359       -6.1894401283       -4.5126484847
 O        -1.8664481088       -5.0369956705       -4.2497094087
 C        -0.1829945229       -6.6404096734       -4.8467648960
 C         0.5138915429       -5.4757535544       -5.5834439061
 C        -0.2911445096       -5.2524420639       -6.8981777486
 O        -1.3469547252       -5.8712599412       -7.0381426458
 C         0.1558196947       -4.4221116178       -8.0028394960
 C        -0.1730556125       -2.8987985254       -7.6112537576
 O         0.7795105098       -2.2443037051       -7.1872706524
 C        -1.5728534796       -2.3382521688       -7.8036287416
 C        -1.7836254927       -1.0336761098       -6.9699062592
 C        -2.0449270507       -1.5243188279       -5.5618838068
 O        -2.5847030280       -2.5807928564       -5.4808986668
 C        -1.7840660694       -0.6807922671       -4.3253918411
 C        -3.2092443351       -0.4794607518       -3.6307661365
 O        -3.9030610293       -1.4161971937       -3.4343680325
 C        -3.7811805330        0.9457818427       -3.3841432902
 C        -4.1356946765        1.1758252164       -1.8448659378
 C        -3.0543305398        0.7035703860       -0.8866101338
 O        -2.0032604017        0.3101771251       -1.2872517268
 C        -3.3692800361        0.6344775025        0.6571042668
 C        -3.8804585003       -0.7403299903        0.9853044727
 O        -4.9744004406       -1.0463460190        1.3846878463
 C        -2.8109859258       -1.9083940688        0.8774502406
 C        -3.2966918775       -3.3458543773        0.9171509845
 C        -3.8776765622       -3.8359284053       -0.4064287017
 O        -3.2089976018       -3.8526634307       -1.4081662746
 C        -5.4553319599       -4.3264744525       -0.5628629497
 C        -6.0163062316       -3.2833721349       -1.5359995332
 O        -5.7637194957       -3.3144569715       -2.6980092146
 C        -7.0175115017       -2.2366854071       -0.9152730498
 C        -7.9596188275       -1.8807278173       -2.0983433662
 C        -9.1469001379       -0.7869474990       -1.9109239378
 O        -8.8600178795        0.3781321316       -1.9072964386
 C       -10.5703640063       -1.2622544801       -1.6842219765
 C       -11.0910924924       -2.2766676826       -2.7595557526
 O       -10.4290421994       -2.4790873412       -3.7787313732
 C       -12.5525792247       -2.8703080511       -2.7388553985
 C       -10.6209808640       -2.0533185635       -0.3549544468
 C       -11.5048813999       -0.0106277151       -1.5646307321
 C        -5.4500693024       -5.7680775036       -1.0078495125
 C        -6.1424978708       -4.3321947675        0.7843593344
 C        -2.1144831640        1.1128340752        1.3851354332
 C        -4.4853342901        1.6816452930        1.0629808671
 C        -0.9012302237       -1.5221739388       -3.3857347602
 C        -1.0788128531        0.6046645578       -4.6852657785
 C         1.7146635340       -4.4644461395       -8.2477951029
 C        -0.6960624017       -4.7721925168       -9.2573239386
 C        -3.0023143758       -7.8586293413       -2.7885214822
 C        -2.5512916578       -8.5970951698       -5.1448950732
 C        -8.4569130999       -3.5771703897       -5.6445009167
 C        -8.3091086660       -5.9990832622       -6.3390867082
 C        -6.6025175691       -4.4835434482      -12.3546685740
 C        -4.0768240480       -4.5555586481      -11.9141705902
 C        -3.1789741331        1.3357928528      -15.7768395270
 C        -4.8499194536        0.3730156750      -17.4750806626
 C        -1.2021337142       -1.9081433543      -20.9405625620
 C         1.3923917783       -1.5892409286      -21.3068687363
 C        -0.3759220657        2.9228538558      -26.6619738970
 C         1.9574674818        3.4645975086      -26.1265567094
 C        -1.8144160986        5.8538861518      -20.7299204074
 C        -0.5496776224        8.0123645349      -21.0994772531
 H         1.6146074484        6.2498706602      -17.9850789325
 H         0.9311037147        7.7020562385      -18.7295158312
 H         2.4430821241        6.9073962600      -19.4666411664
 H         1.3180552599        7.2956534872      -23.1447704570
 H        -0.2194488501        7.1704170489      -23.9066595707
 H         2.1433851875        5.2658720494      -24.1135769429
 H         1.4044165714        6.2646746219      -25.3589364427
 H         0.1370345276        0.3892557704      -25.5785625275
 H        -1.2659820940        1.0576761920      -24.6650899653
 H         1.0436504983       -0.6152589824      -23.5857311430
 H        -0.5492930979       -1.1898835750      -23.7978704932
 H         0.9458886438       -1.2714208487      -17.7470483237
 H        -0.3442290607       -1.9948341315      -18.5638269427
 H        -0.4570512937        0.4103968425      -16.9273073101
 H        -0.9570623208       -1.1163623116      -16.2193005267
 H        -5.3076283945       -0.2819119069      -14.6774702276
 H        -3.8171200715       -0.3090334421      -13.8018824141
 H        -3.9466984197       -3.0402125065      -13.8571002605
 H        -5.6203793815       -2.7880079722      -14.5436278654
 H        -7.7719077063       -2.7775345452      -10.5231499919
 H        -6.6329103131       -1.4622079250      -10.1069516742
 H        -8.3033104547       -2.1870098631       -8.0083175429
 H        -6.5860479181       -2.3983526528       -7.6929705782
 H        -5.5240100931       -5.6489473151       -7.7541978076
 H        -6.1706063692       -6.6425527270       -6.6082118020
 H        -3.4184637137       -5.3157926055       -6.3940290062
 H        -3.7784243919       -6.8442093883       -6.9590501064
 H        -0.2586070191       -7.5133193724       -5.4664592222
 H         0.3518753003       -6.6990196172       -3.8770181272
 H         1.5986895746       -5.4826087019       -5.5951950679
 H         0.2351518992       -4.5852886769       -4.9536601555
 H        -2.3190512906       -3.0765988851       -7.4705713123
 H        -1.7262693165       -2.1280527877       -8.8954379536
 H        -2.6827866964       -0.3745639643       -7.2585216217
 H        -0.7784727436       -0.4989759347       -7.0693625250
 H        -4.7128539344        1.0434562405       -3.9349332201
 H        -3.0859426702        1.7456748983       -3.7523969812
 H        -5.0559469185        0.6506052056       -1.5277512106
 H        -4.3242027191        2.2385148233       -1.8188367232
 H        -2.2146017247       -1.8828756861        1.7573600047
 H        -2.2417122406       -1.8810479167       -0.1009246368
 H        -3.9837377766       -3.4927255506        1.7510518898
 H        -2.4726597506       -4.0419374749        1.1016431723
 H        -6.6258557681       -1.3454010341       -0.5096498108
 H        -7.6433385563       -2.6872189097       -0.0845939912
 H        -8.3443329257       -2.7777058043       -2.5406282397
 H        -7.2513652320       -1.5312070917       -2.8932750076
 H       -13.2348744093       -2.0290420716       -2.6911108548
 H       -12.8400146537       -3.5303272929       -1.9259945203
 H       -12.6500441001       -3.4316298292       -3.6644274078
 H        -9.9454423454       -2.8844873076       -0.3962695970
 H       -11.6316830375       -2.5473621594       -0.2745589453
 H       -10.4390073066       -1.5452233359        0.5423357920
 H       -11.2363718528        0.6086632321       -0.7364035058
 H       -12.5164439028       -0.3673396100       -1.4447286517
 H       -11.5219675643        0.5511883801       -2.4435607188
 H        -6.4441065385       -6.2367098528       -0.8569876498
 H        -4.6806307286       -6.2676937397       -0.4793874445
 H        -5.1543869070       -5.8261007012       -2.0358965009
 H        -7.1934048567       -4.3836769675        0.6380453404
 H        -5.9656146566       -3.5018788599        1.5360947006
 H        -6.0133626590       -5.3276788574        1.1871546475
 H        -2.1882743477        1.3405242014        2.5071028688
 H        -1.8306546819        2.0785594481        0.9158225556
 H        -1.3708266768        0.3373784318        1.3433861651
 H        -4.7082473105        1.6082871555        2.1409878063
 H        -5.4342487160        1.4861120679        0.4712392193
 H        -4.0828404040        2.6756009690        0.8955131697
 H        -0.0254258763       -1.8238440265       -3.8452939453
 H        -1.3764734432       -2.5057283773       -3.3071584208
 H        -0.7669569357       -1.0870975443       -2.3579707774
 H        -0.0189700062        0.4767478527       -4.9105462848
 H        -0.8950091803        1.1475913189       -3.7576835890
 H        -1.5019423646        1.2492681686       -5.4449825983
 H         1.8602553334       -4.6217024585       -9.3201895195
 H         2.2828642453       -5.2533676445       -7.7311500684
 H         2.2948539705       -3.5471780172       -8.1532606989
 H        -1.7448728522       -4.6759800517       -9.1493397185
 H        -0.4813361336       -5.7576600402       -9.5967052378
 H        -0.4781076252       -4.1745521676      -10.1111848561
 H        -3.1020598392       -8.9545479519       -2.7391238633
 H        -3.9591274244       -7.4277144852       -2.4282088899
 H        -2.3626367189       -7.6397075797       -1.9978222221
 H        -3.4841607632       -9.1098858321       -4.9508398312
 H        -1.7621117886       -9.2593717554       -4.7868594221
 H        -2.4305354707       -8.2782738355       -6.2126635102
 H        -9.5393590672       -3.6461582148       -5.9161450681
 H        -8.1527554176       -2.5242704348       -5.6953198933
 H        -8.3901347946       -3.8510816360       -4.6528103896
 H        -8.0910338187       -6.6419591369       -7.1932605352
 H        -9.4023977579       -5.8238716918       -6.1070819874
 H        -7.9448825803       -6.4056239993       -5.3909526792
 H        -6.7630207976       -5.4354515536      -11.9321327257
 H        -6.4062855988       -4.5824755700      -13.4013602254
 H        -7.5361586216       -3.8765639013      -12.3433152821
 H        -3.2579365230       -3.9383332795      -11.5233435823
 H        -4.0652391210       -4.8681392117      -12.9259952681
 H        -4.2613089387       -5.3768208593      -11.1751706055
 H        -2.4584680562        1.0785301880      -14.9970902338
 H        -4.1160349774        1.4833843611      -15.1839900026
 H        -2.8048504394        2.0914267317      -16.4343544676
 H        -5.0864137033       -0.4315230280      -18.1497994243
 H        -4.9181248940        1.3198926702      -17.9163902167
 H        -5.7675255133        0.4591171787      -16.9341769427
 H        -1.2756238367       -2.4332263704      -21.8747527054
 H        -2.0449098695       -1.2539023745      -20.7458461480
 H        -1.2548991550       -2.7901938776      -20.2616504882
 H         1.3850103381       -2.2871465062      -22.1639783680
 H         1.7461255170       -2.1460460294      -20.4015787773
 H         2.1267657975       -0.8267310273      -21.4952358983
 H        -1.2871809542        3.3240074424      -26.3999781079
 H        -0.3813198383        1.9071194055      -26.8579613655
 H        -0.0764732826        3.4505126964      -27.4871428719
 H         2.0494009281        4.2421610374      -26.9406970562
 H         2.2194460801        2.4912434642      -26.4965275796
 H         2.8040840077        3.5731359819      -25.4684615483
 H        -2.1956575700        6.3315824250      -19.7894257741
 H        -1.9398425838        4.7776578195      -20.6153766748
 H        -2.5003579795        5.9977483573      -21.5337739737
 H         0.4379925459        8.4260810597      -21.4418823725
 H        -0.7596523906        8.5662342287      -20.2017661448
 H        -1.3151436086        8.1761814086      -21.8510887577
 Na       -3.7174332796       -3.9074638799       -3.7849010680
 Na        0.1297260105        2.7912583899      -20.8740518030
