232

 C         1.1090150157        6.5595549978      -18.5888874676
 C         0.6447415038        5.5653747310      -19.6552310206
 O         0.7190112176        4.3828968157      -19.3917752845
 C        -0.0941641336        6.2596688982      -20.8793570975
 C         0.3856051718        5.6148734470      -22.3049237890
 O         0.4744784538        4.4259022391      -22.5069010770
 C         0.5811241438        6.6391933022      -23.4465040074
 C         0.7225452097        5.9895617716      -24.8427087686
 C        -0.1710750525        4.6062278766      -24.9345479430
 O        -1.3583620153        4.7136353824      -24.8139781618
 C         0.4666037967        3.2563138697      -25.5306038386
 C         0.4201638755        2.1181883278      -24.3891718544
 O         1.2777340099        2.1613849841      -23.5094414068
 C        -0.4802324028        0.8965001412      -24.6005095121
 C        -0.1977906103       -0.1433565945      -23.4882427377
 C        -0.7440843641        0.1567604522      -22.1167433751
 O        -1.4149151916        1.1531151230      -21.9661868795
 C        -0.3855347148       -0.7912553731      -21.0097617713
 C        -0.3083652387       -0.0713281430      -19.5897340707
 O        -0.1615656470        1.1673286363      -19.5156168965
 C        -0.0109991124       -0.9774887795      -18.4073287532
 C        -0.8078794667       -0.3253229556      -17.2513442489
 C        -2.2287069334       -0.1103321833      -17.7663714578
 O        -2.4510172155        0.0450185529      -18.9795799523
 C        -3.3445488995        0.0877006209      -16.7085127323
 C        -3.4150253187       -1.1266836557      -15.7633541881
 O        -2.7313547665       -2.0764324321      -15.9712696320
 C        -4.5020222498       -0.9864752421      -14.5298198452
 C        -4.8726649512       -2.3178602365      -13.9947183679
 C        -5.4570953871       -2.3142336091      -12.4933599111
 O        -5.7041990352       -1.2339413869      -12.0836056123
 C        -5.5373318244       -3.7210565033      -11.6697716636
 C        -5.7284829531       -3.3260304015      -10.1694091593
 O        -4.8641663826       -3.6733998295       -9.3345000986
 C        -6.9713427189       -2.6017944280       -9.7759674766
 C        -7.3034412376       -2.8383718507       -8.3019068479
 C        -7.5497369332       -4.2993031200       -8.0219914224
 O        -7.5221897953       -5.1044542964       -8.8990125794
 C        -7.6774350015       -4.7782109671       -6.6171968423
 C        -6.0970363202       -4.9411482647       -6.1917796302
 O        -5.6459579922       -4.1110062387       -5.5096881683
 C        -5.2899574878       -6.1137539495       -7.0662329532
 C        -3.9255035454       -6.2973787889       -6.3978206152
 C        -3.9585804111       -6.8725781706       -4.9293071624
 O        -4.8671361561       -6.6097084807       -4.1436453958
 C        -2.7003036802       -7.5311244993       -4.3656554872
 C        -1.5894338628       -6.2761347732       -4.3932896872
 O        -2.0099744005       -5.1615733163       -4.1454537693
 C        -0.2075721830       -6.4907798226       -4.7925781009
 C         0.5845397628       -5.4092196137       -5.6525490093
 C        -0.0648945198       -5.3283983814       -7.1054007855
 O        -0.9063975480       -6.1488434708       -7.4551760226
 C         0.3240252271       -4.1690651150       -8.0173538301
 C        -0.0784593337       -2.7987548696       -7.3886420819
 O         0.6596483758       -2.2307475759       -6.6066897752
 C        -1.2266945108       -1.9938752539       -7.9666019814
 C        -1.8989230096       -0.9142858612       -7.0099239452
 C        -2.1275930273       -1.4739996347       -5.6067541907
 O        -2.5468607983       -2.6135757720       -5.5836586931
 C        -1.7876155546       -0.6099756753       -4.3308162168
 C        -3.1366233011       -0.2947377023       -3.4610743878
 O        -3.7349548405       -1.2233695657       -3.0127001028
 C        -3.6439477727        1.1366879066       -3.2472480426
 C        -4.2261017892        1.1236861956       -1.8233077031
 C        -3.1103413520        0.7022088151       -0.8827702618
 O        -2.0008761026        0.4539030677       -1.2722873491
 C        -3.4363078362        0.7111952852        0.6355304966
 C        -3.8695351069       -0.8152665747        0.8544210050
 O        -5.0325582471       -1.1120498471        0.9515313006
 C        -2.7764062662       -1.9427757945        0.9373749597
 C        -3.5157257808       -3.3203285892        1.1137183640
 C        -4.0688645256       -3.7373311711       -0.1619094207
 O        -3.3570376789       -3.8486532359       -1.1501332278
 C        -5.5441411590       -4.3739392677       -0.2559007107
 C        -6.1565832891       -3.4682977374       -1.3334859981
 O        -6.0325981973       -3.6925573254       -2.5041261087
 C        -7.2392009934       -2.4028850125       -0.9300902209
 C        -7.9539501893       -1.8635350632       -2.1791012019
 C        -9.0118025247       -0.8180533528       -1.8615231117
 O        -8.8833482637        0.3700424324       -1.9637601369
 C       -10.4476646569       -1.3267634123       -1.4603599705
 C       -10.9587297931       -2.0456708737       -2.7717504490
 O       -10.2253390475       -2.1002559770       -3.7477571438
 C       -12.3250232956       -2.6797798230       -2.7686564289
 C       -10.5256254675       -2.2919854365       -0.2781281745
 C       -11.3562204659       -0.1487466350       -1.2607289786
 C        -5.4024351220       -5.7920445056       -0.9577259840
 C        -6.2201005900       -4.6139325776        1.0418421571
 C        -2.1182964778        1.0456715591        1.4682618660
 C        -4.6658173007        1.5345965772        1.0355334756
 C        -0.9143885935       -1.5604137335       -3.3983309853
 C        -1.0001819002        0.6121638235       -4.6378328689
 C         1.8818235512       -4.2050912281       -8.0317411691
 C        -0.2289539597       -4.4441939739       -9.4025964271
 C        -2.6612079872       -7.8348010500       -2.8727536145
 C        -2.2293451646       -8.7954080935       -5.1093176024
 C        -8.3311924910       -3.6705379227       -5.6192132654
 C        -8.4812572560       -6.1637231343       -6.5710647577
 C        -6.7088541038       -4.4416464955      -12.3606200237
 C        -4.2025660898       -4.4593487014      -11.8790049290
 C        -3.0081106020        1.3375451211      -15.9577854173
 C        -4.7656181317        0.2573514622      -17.3472087896
 C        -1.4020499224       -1.9505231355      -21.0907307445
 C         1.0580055978       -1.2981048598      -21.1591487974
 C        -0.4854674871        2.7751667426      -26.7399432483
 C         1.8645516997        3.2999357550      -26.0846125630
 C        -1.6250170256        5.8666522929      -20.7964126029
 C         0.0128036918        7.7963831154      -20.7600481897
 H         1.7030903157        6.1653413786      -17.8173803489
 H         0.2690980102        7.0137553728      -18.0917204010
 H         1.6572509625        7.2971951265      -19.1489812144
 H         1.5020795560        7.1749274367      -23.1939503991
 H        -0.1897978904        7.4876958349      -23.3732997225
 H         1.8028625043        5.9041650806      -24.9782039695
 H         0.3681628346        6.5873320310      -25.5730499741
 H        -0.3198343537        0.4223623275      -25.4866714802
 H        -1.5805118823        1.2149364960      -24.4988131154
 H         0.8406803002       -0.4625778078      -23.4405813383
 H        -0.7936803308       -1.0627517435      -23.8154917230
 H         1.0740397981       -1.0259169113      -18.2183126840
 H        -0.3203872043       -2.0154458697      -18.4083792361
 H        -0.4558726729        0.7361799648      -16.9870904278
 H        -0.8301141469       -0.8859161409      -16.2686989665
 H        -5.3491473904       -0.4215761503      -14.8599058456
 H        -4.1196397609       -0.3539914336      -13.7601003240
 H        -4.0927106065       -2.9732613919      -13.9991257068
 H        -5.7183873807       -2.6652117818      -14.5280055234
 H        -7.7727891891       -2.7382416139      -10.4949426173
 H        -6.7971679213       -1.5416255560       -9.9251641403
 H        -8.1384706978       -2.1938335989       -8.0131717502
 H        -6.4996742317       -2.4248570650       -7.7565535613
 H        -5.2864744249       -5.7005342689       -8.1252708123
 H        -5.8831838193       -7.0328313230       -7.2754248409
 H        -3.3744843540       -5.3051956662       -6.1822177017
 H        -3.2024427232       -6.7645517352       -7.1398307985
 H        -0.2447412019       -7.4016179101       -5.3735190786
 H         0.3951820290       -6.6710096563       -3.8325372357
 H         1.6545376573       -5.6768627110       -5.7137075876
 H         0.5361356918       -4.4561725869       -5.2358005595
 H        -1.9836196251       -2.7089141938       -8.1945994703
 H        -0.9584188122       -1.4434257587       -8.9007280241
 H        -2.7589787706       -0.5430201132       -7.3865887722
 H        -1.1510913743       -0.1597359963       -6.9449367602
 H        -4.3091830065        1.2763459255       -4.0475334238
 H        -2.7986234190        1.8111489131       -3.3274306298
 H        -5.0295335551        0.4778293365       -1.7945119699
 H        -4.5684856035        2.1512042227       -1.4984904514
 H        -2.2508185401       -1.8573075575        1.8562388461
 H        -2.2149686371       -2.0817113896       -0.0075361914
 H        -4.1018673604       -3.3864630616        2.0159268769
 H        -2.7166868067       -4.0748962413        1.1895962643
 H        -6.8473494874       -1.6862340873       -0.2044785200
 H        -8.0054631859       -2.9739863975       -0.3581434663
 H        -8.2540410285       -2.7320735912       -2.6143426527
 H        -7.1816082045       -1.4440840144       -2.7940980581
 H       -13.1710126014       -2.1490220071       -2.3089345320
 H       -12.1326905360       -3.6628446983       -2.3124212347
 H       -12.6522809106       -2.8959638884       -3.8493764454
 H        -9.9536984675       -3.1879733818       -0.4777596350
 H       -11.4342273185       -2.5718543153        0.2594394192
 H        -9.8998675994       -1.8245443660        0.5239805471
 H       -11.1153873641        0.4339591343       -0.3297804232
 H       -12.4186240676       -0.4551041744       -1.1164824619
 H       -11.2094022151        0.5668442414       -2.1230566473
 H        -6.4251327069       -6.0097212037       -1.2946307419
 H        -4.9285761018       -6.5396995185       -0.3625032695
 H        -4.7502775661       -5.7212514473       -1.8484780072
 H        -7.0950364167       -5.2467322422        0.9980574195
 H        -6.4636960900       -3.5526939699        1.4816349063
 H        -5.4573021800       -4.9146709234        1.7240225907
 H        -2.1320700618        0.6111647223        2.5153582002
 H        -2.0379440788        2.1121640653        1.6632223710
 H        -1.2220323422        0.6632937150        1.0923357534
 H        -4.6875508550        1.4306338469        2.1201282738
 H        -5.5230747951        1.0470231242        0.5570320346
 H        -4.6570765530        2.5133106178        0.6993786707
 H        -0.0673969668       -2.0680380816       -3.8564386145
 H        -1.5345955965       -2.4051942201       -3.0414353453
 H        -0.4631146242       -0.9734858220       -2.5446189106
 H        -0.0176789309        0.3954185422       -5.0114346917
 H        -0.8457967900        1.3016057419       -3.7705010591
 H        -1.3652735111        1.1902638134       -5.4688777812
 H         2.4015663828       -3.2579520608       -8.2368768185
 H         2.2036699450       -4.9971324744       -8.6727301812
 H         2.3289568714       -4.3833293155       -7.0907253184
 H        -1.3316508249       -4.4819501527       -9.4341836589
 H         0.0231309456       -5.4591387836       -9.7922925267
 H         0.1098986905       -3.7664531436      -10.2212546093
 H        -3.3223994810       -8.4507344896       -2.2579936107
 H        -2.4573516267       -6.9267055146       -2.2757982840
 H        -1.7346245289       -8.3831828142       -2.7478851243
 H        -3.0593827194       -9.4155745156       -5.1509693707
 H        -1.5141276891       -9.2696055830       -4.4863601733
 H        -1.7456650889       -8.5408863422       -6.0763286466
 H        -9.1897976894       -3.1901629616       -6.1050019849
 H        -7.6403094556       -2.8113328655       -5.5156799760
 H        -8.5999950457       -4.0364804185       -4.6539429256
 H        -7.9767365337       -6.8328033386       -7.1990388392
 H        -9.5288975772       -5.9859945059       -6.8771288997
 H        -8.4890327446       -6.4887443300       -5.5659059278
 H        -7.1277362367       -5.0661060905      -11.6347005799
 H        -6.4476522231       -5.0227917376      -13.2964062664
 H        -7.4985748868       -3.7672799036      -12.7114854053
 H        -3.3310014537       -3.8021061630      -11.4883124821
 H        -4.1152964341       -4.4690902611      -12.9122884486
 H        -4.3187507819       -5.4082013753      -11.3960118029
 H        -2.0662219093        1.3039529308      -15.5191829606
 H        -3.8552675085        1.5679927304      -15.2075367394
 H        -3.1807643225        2.0556307695      -16.7785336252
 H        -5.3721749806       -0.6481609243      -17.5625520738
 H        -4.8750029329        0.8838253312      -18.2333850549
 H        -5.4163031318        0.8246501149      -16.7272103718
 H        -1.3995149750       -2.4885041191      -22.0061958352
 H        -2.4699395911       -1.6439156228      -20.9124241291
 H        -1.1575553167       -2.7742516699      -20.3614478044
 H         1.1188009268       -1.8830549834      -22.0878897913
 H         1.2270934143       -1.9859195743      -20.3832511471
 H         1.8599949520       -0.5911680637      -21.0692160309
 H        -1.5229356529        2.3914607803      -26.3780294478
 H         0.0846997637        2.0074109702      -27.3857955443
 H        -0.6456479036        3.7318595551      -27.3776867524
 H         2.0566701348        4.1756303028      -26.7731426341
 H         2.1787141685        2.4227015465      -26.5592848895
 H         2.6053633926        3.3326102697      -25.3194793693
 H        -2.1355213814        6.4441846352      -19.9867306270
 H        -1.9007614211        4.8553020133      -20.6712404024
 H        -2.1794414632        6.1553798589      -21.6826287209
 H         1.0895302934        8.1659316726      -20.9760169178
 H        -0.4238914686        8.0797392077      -19.7638891444
 H        -0.7619093029        8.1759296356      -21.3878614644
 Na       -3.8783877084       -3.6190958695       -3.6644303721
 Na       -0.2849713212        2.8366976598      -20.9417408781
