232

 C         1.1435463848        6.1009754200      -18.2995935707
 C         0.6066973617        5.5229710564      -19.6257216756
 O         0.6672819705        4.3032319223      -19.6703733342
 C        -0.0642643207        6.3744581969      -20.8019361577
 C         0.4234916995        5.6995123132      -22.1922216359
 O         0.7375770729        4.5060827709      -22.2588564843
 C         0.4462015061        6.5940343929      -23.4967547389
 C         0.7236358246        5.6377512760      -24.7262611696
 C        -0.3227240285        4.5464637457      -25.0242273045
 O        -1.5194236185        4.6296379506      -24.8615392562
 C         0.3236987971        3.2698180834      -25.7388527834
 C         0.2510103441        2.1193593623      -24.6330071550
 O         1.0558580043        2.0958852685      -23.7675495303
 C        -0.8385310303        0.9883492262      -24.6548664645
 C        -0.4433767006       -0.1540964286      -23.6721080213
 C        -0.8784815169        0.1633685713      -22.2356658336
 O        -1.5846719639        1.1453819153      -22.0186537691
 C        -0.4256767297       -0.7910121467      -21.0673168709
 C        -0.2091906662        0.0731665489      -19.6624258915
 O        -0.1083041751        1.2698363342      -19.5757987067
 C        -0.0267711366       -0.8653800862      -18.4031776828
 C        -0.8085968594       -0.2346808537      -17.2141155881
 C        -2.2462656934       -0.0220642181      -17.6971613828
 O        -2.5793405291       -0.1673753116      -18.8565406768
 C        -3.3770682589        0.2276752466      -16.6442587923
 C        -3.4772618230       -1.0295301405      -15.6077935709
 O        -2.7129955598       -1.9904029566      -15.7320885307
 C        -4.5335007791       -0.9627246909      -14.5024044217
 C        -4.8691511462       -2.4358056856      -14.0103184263
 C        -5.4708916985       -2.3936100217      -12.6387604901
 O        -5.6499748243       -1.2682268745      -12.1910681386
 C        -5.5714232674       -3.6478253010      -11.6993463324
 C        -5.7223961322       -3.1007015321      -10.2821982991
 O        -4.7893536542       -3.3316624093       -9.5421099062
 C        -7.0386338551       -2.4330129922       -9.8882738656
 C        -7.3858947020       -2.8538372712       -8.4316111777
 C        -7.5140463977       -4.3365060255       -8.1541758326
 O        -7.8866921783       -5.0791135944       -9.0726234919
 C        -7.4663981986       -4.9010296945       -6.7022548183
 C        -5.9624280385       -5.1798186764       -6.1778727269
 O        -5.5038463881       -4.3376127169       -5.3902478219
 C        -5.2139232695       -6.3358043896       -6.8682829909
 C        -3.8382406676       -6.4516145885       -6.3355396951
 C        -3.8949424282       -6.8579238005       -4.8808063610
 O        -4.8115856841       -6.7884493920       -4.1370017053
 C        -2.5632045982       -7.4252090253       -4.3597070948
 C        -1.4913134818       -6.2552172363       -4.2709090211
 O        -1.7895035557       -5.1053224693       -4.0899038126
 C         0.0019698792       -6.4806502512       -4.8853680295
 C         0.4632422366       -5.2654895316       -5.7217506349
 C         0.1016419159       -5.3175391529       -7.1598877719
 O        -0.6494095168       -6.1053471165       -7.7060129226
 C         0.5804175125       -4.0082494284       -7.9210839197
 C         0.0414008101       -2.7358635573       -7.2431374122
 O         0.4528647209       -2.4523921986       -6.1417192519
 C        -1.2068115745       -2.1180506719       -7.8972344369
 C        -1.7063228740       -1.0004260440       -6.9910282452
 C        -2.1694078200       -1.4180424987       -5.6139708492
 O        -2.7971582721       -2.4683881410       -5.5307714435
 C        -1.7260467042       -0.6633946383       -4.3692218095
 C        -3.0186676889       -0.4175686323       -3.5820339516
 O        -3.6915396448       -1.3601989867       -3.1140810658
 C        -3.6540077855        1.0483939030       -3.2937846842
 C        -4.1941435799        1.2366570519       -1.9040834802
 C        -3.1647322127        0.8412318805       -0.7964520783
 O        -2.0057810134        0.5373969218       -1.0885104247
 C        -3.5215836930        0.7588525194        0.7477227442
 C        -3.9107671554       -0.8800846487        0.7562008198
 O        -5.0990190494       -1.1896444154        0.6727883505
 C        -2.8607513231       -1.9103421658        1.0223791210
 C        -3.4232018190       -3.3784016273        1.1466583437
 C        -4.1163679586       -3.8048743501       -0.1938097052
 O        -3.3745889630       -3.6827557418       -1.1569789564
 C        -5.4844667004       -4.5318861433       -0.2300500909
 C        -6.2254808241       -3.6432599390       -1.2123756308
 O        -6.1031896614       -3.7333909629       -2.4281662500
 C        -7.3078173319       -2.6780743295       -0.7285462736
 C        -7.7850034446       -1.7688074220       -1.9670282735
 C        -8.9619002627       -0.7634878453       -1.7346688464
 O        -8.7364885028        0.4358385698       -1.7770318584
 C       -10.4029413013       -1.2729367458       -1.5424605524
 C       -11.0388561854       -1.9599359513       -2.8545508940
 O       -10.5601902376       -1.8674053288       -3.9362113296
 C       -12.3480872546       -2.6917758918       -2.7240219352
 C       -10.4441234996       -2.3592720876       -0.4444872275
 C       -11.3446871001       -0.1304154993       -1.0536998559
 C        -5.2547838893       -6.0385992675       -0.7433853027
 C        -6.2892070294       -4.5328150136        1.1393759123
 C        -2.2396767289        0.9200847704        1.5847236486
 C        -4.6736382393        1.6076198625        1.2370792463
 C        -0.9140938030       -1.6312128189       -3.5152317260
 C        -0.8878741850        0.5827368731       -4.6217445194
 C         2.0605002703       -3.9551124654       -8.0688742170
 C         0.0513249697       -4.0789341526       -9.4195760939
 C        -2.7348056719       -7.8503918031       -2.8446579886
 C        -2.0078030392       -8.5654596003       -5.2092714895
 C        -8.0973873915       -3.9209252530       -5.7110182448
 C        -8.3737304738       -6.2091569628       -6.5728910506
 C        -6.8288782747       -4.5529086739      -11.9807520721
 C        -4.2565097459       -4.5627960110      -11.9143805095
 C        -3.0481445199        1.6612691090      -15.9297858476
 C        -4.6675754749        0.2519057298      -17.4343617914
 C        -1.5438779176       -1.8210243074      -21.0060561966
 C         0.9546587776       -1.4043105469      -21.3076956150
 C        -0.4508927640        2.8196585759      -26.9670344698
 C         1.8684147323        3.4777351139      -26.0131474035
 C        -1.6141973975        5.9118538534      -20.7165214649
 C         0.1848203233        7.9253552614      -20.7846748191
 H         1.6200542601        5.2764048244      -17.7159870234
 H         0.2592430005        6.3880703584      -17.6922154023
 H         1.8183107674        6.9584674729      -18.3963287257
 H         1.1120391183        7.4790251679      -23.4015035730
 H        -0.5145056125        7.0387106868      -23.5471926397
 H         1.6512024492        5.1280620061      -24.4230410770
 H         0.9448881009        6.2681402922      -25.7012499531
 H        -0.7861888010        0.4951024549      -25.7054236590
 H        -1.8272211556        1.3414221889      -24.5013069927
 H         0.6342978803       -0.0707317683      -23.5294707715
 H        -0.6329271500       -1.1211831704      -24.0172834408
 H         0.9877790580       -1.0202686286      -18.0683824443
 H        -0.4603265827       -1.8656849653      -18.4827040182
 H        -0.4289619108        0.7232248253      -16.8833321042
 H        -0.7013158783       -0.9059298905      -16.3648395060
 H        -5.3971714729       -0.3795488161      -14.8541442174
 H        -4.0970075030       -0.2847717558      -13.7270857901
 H        -3.9549186608       -3.1186495755      -13.8144871123
 H        -5.6544405116       -2.9096432848      -14.6233592595
 H        -7.9435207336       -2.5710702931      -10.5622026607
 H        -6.9345493773       -1.3136111985      -10.0100419461
 H        -8.2747501596       -2.2427711233       -8.1925788061
 H        -6.5890653434       -2.4635612368       -7.7049295763
 H        -5.1931628093       -6.0781178961       -7.8931508691
 H        -5.9143317161       -7.1504440359       -6.8768971676
 H        -3.3702954133       -5.5109851865       -6.4517468679
 H        -3.2359997089       -7.0405313893       -6.9920329558
 H         0.1262073516       -7.3312160723       -5.6158236422
 H         0.7819441741       -6.6599324363       -4.1731463209
 H         1.5366639008       -5.3399576161       -5.8037928096
 H         0.2625350383       -4.2249392053       -5.3077589811
 H        -2.1088633611       -2.7795422759       -8.0595615534
 H        -0.9648310002       -1.6856944374       -8.8652235775
 H        -2.7037460484       -0.6837352105       -7.5617961566
 H        -1.0216175828       -0.0686805812       -6.9911864023
 H        -4.4768887254        1.1248687835       -4.0583009100
 H        -2.8712811124        1.7670319794       -3.4884135630
 H        -5.2043804969        0.7058026031       -1.9158980592
 H        -4.3751047831        2.2840560429       -1.7332626986
 H        -2.4373542449       -1.6844400740        2.0343380962
 H        -2.2310952768       -1.9180083700        0.1568984225
 H        -4.1048376003       -3.3970223316        2.0263200981
 H        -2.5809369870       -4.0299030927        1.4341340756
 H        -7.0200690616       -2.0958310810        0.1675495877
 H        -8.0773984454       -3.3431190776       -0.3974372517
 H        -8.1083821473       -2.6126377951       -2.6778716884
 H        -6.8334473901       -1.2843234394       -2.2274345214
 H       -12.9800792126       -2.1464931561       -2.0469393162
 H       -12.2670531182       -3.7440362088       -2.4583056899
 H       -12.9340156316       -2.5644685604       -3.6176624468
 H       -10.0948831701       -3.3675442875       -0.6667241919
 H       -11.4727847749       -2.4236540942       -0.2172102438
 H        -9.9924682140       -2.1348473719        0.5226176628
 H       -10.8702695978        0.4376015189       -0.3082121775
 H       -12.1797705442       -0.5157540291       -0.5439793281
 H       -11.5499087498        0.5538666540       -1.8527273644
 H        -6.1212942979       -6.5448939042       -1.0269102747
 H        -4.8191540900       -6.4749365489        0.1596106823
 H        -4.5009916100       -6.0968066582       -1.4876261038
 H        -7.3231230499       -4.5338756469        0.8021961144
 H        -6.0845411280       -3.6860461828        1.6810531816
 H        -6.0255948518       -5.3271489841        1.8513332145
 H        -2.3486250283        0.4868028988        2.5620058477
 H        -2.0504387422        2.0041811164        1.8470995489
 H        -1.2250542173        0.5540944014        1.1614107767
 H        -4.8224639684        1.2636378199        2.2406718398
 H        -5.4965308010        1.5421990493        0.5714642858
 H        -4.3892587664        2.6883989947        1.1099895805
 H         0.1443923821       -1.7215536047       -3.9217094083
 H        -1.3348190612       -2.6275409127       -3.3691504908
 H        -0.6844898626       -1.1556666826       -2.5958356580
 H        -0.0487896529        0.5535265642       -5.3526988362
 H        -0.5622870063        0.9954925959       -3.6795079303
 H        -1.4742452487        1.4330469638       -5.0431050557
 H         2.3943230903       -2.9324458207       -8.2582358038
 H         2.4694861898       -4.6117783262       -8.8603724368
 H         2.6291803668       -4.1927331879       -7.1315347076
 H        -0.9433487677       -4.4608384063       -9.6042868802
 H         0.6314509084       -4.7486134506      -10.0134700457
 H         0.2032992169       -3.1473098438       -9.9251505088
 H        -3.7870452144       -8.1088490154       -2.7053244058
 H        -2.6032675164       -7.0241561031       -2.1613670760
 H        -2.2732210800       -8.8019459703       -2.4488000774
 H        -2.6530983898       -9.4667891292       -5.1077637217
 H        -0.9643112221       -8.7327519957       -4.9696958052
 H        -2.0404822374       -8.1518889258       -6.1672971790
 H        -8.9411160717       -3.4128325336       -6.0691175345
 H        -7.4108452717       -3.1661973705       -5.4583068122
 H        -8.3116600430       -4.5037009134       -4.7752469554
 H        -7.9875222331       -6.9696510542       -7.3251617787
 H        -9.4044126441       -5.9490168157       -6.7930955368
 H        -8.2507296800       -6.6056444309       -5.5170107639
 H        -6.8576314696       -5.4285512392      -11.3100626478
 H        -6.7347904856       -4.8636940467      -13.0032044715
 H        -7.7911934863       -4.1240045042      -11.9262821495
 H        -3.4044117732       -3.9528691199      -11.8049758282
 H        -4.1755057498       -5.0548976963      -12.9291061096
 H        -4.4438997283       -5.1875766125      -11.0771296538
 H        -2.0476448252        1.5201422311      -15.4604054632
 H        -3.8194662547        1.7988800024      -15.2380348244
 H        -3.2183165207        2.5375958414      -16.5655949289
 H        -5.0071574285       -0.6375867804      -17.8949276075
 H        -4.5742700270        0.8357035369      -18.3402955420
 H        -5.5896806653        0.6213994603      -16.9802775631
 H        -1.6946788455       -2.1316703234      -22.1013908696
 H        -2.5576996925       -1.5347189360      -20.7243300526
 H        -1.2727872710       -2.7371521171      -20.5084230818
 H         0.9144374357       -2.0018752024      -22.1831670833
 H         1.3054260011       -2.0627140574      -20.5084287801
 H         1.7210616191       -0.6270511536      -21.3633305567
 H        -1.4509511747        2.9889118984      -26.7909326098
 H        -0.3048313289        1.8240915161      -27.1749483779
 H        -0.1170849076        3.3764079206      -27.7853461186
 H         2.0342437561        4.2660307019      -26.7031623541
 H         2.3092190507        2.5999762142      -26.5922826205
 H         2.6193963675        3.6233119727      -25.1980976167
 H        -2.0658396248        6.0862650762      -19.7738685738
 H        -1.7331147251        4.8041339280      -20.8765250474
 H        -2.3170657572        6.4163727563      -21.4049887528
 H         1.1974921015        8.1248653232      -20.9272572850
 H        -0.2986814867        8.2522796349      -19.8718709322
 H        -0.4722026375        8.3355670443      -21.5887065574
 Na       -4.0230179087       -3.7586563152       -3.6349176607
 Na       -0.2885711538        2.9235844487      -21.2464051919
