232

 C         1.0864861494        6.1332068000      -18.3832648729
 C         0.6186025648        5.4490771584      -19.6560076548
 O         0.5769648079        4.2496256616      -19.7720896998
 C         0.0241093475        6.3335527958      -20.7827484162
 C         0.3702848598        5.7434090899      -22.1617180680
 O         0.9164960772        4.6612608619      -22.2328705713
 C         0.1397016809        6.4887330860      -23.4219347579
 C         0.7269614102        5.6129505094      -24.6331351987
 C        -0.2556075716        4.4957901329      -25.0946092293
 O        -1.4253361571        4.5539595838      -24.8527688465
 C         0.2929533462        3.2481302940      -25.8567907712
 C         0.1983218282        2.2236133080      -24.6778889982
 O         0.9858338020        2.1990994093      -23.7274043857
 C        -0.8670054231        1.0305456394      -24.7978537804
 C        -0.6216460343       -0.1038659064      -23.8070498831
 C        -0.8779148852        0.2256065215      -22.2806650166
 O        -1.6378799590        1.1301609563      -21.9746650749
 C        -0.4428815443       -0.7262601055      -21.1366904185
 C        -0.2468167486        0.0712073551      -19.7309897351
 O         0.0133722145        1.2692650891      -19.6461636953
 C         0.0610848193       -0.7370022077      -18.4868621003
 C        -0.8428030153       -0.2314558258      -17.2611305350
 C        -2.2344225351       -0.0756685301      -17.6529412682
 O        -2.6073106859       -0.2548637926      -18.8304517191
 C        -3.4070200748        0.2567891750      -16.5739425644
 C        -3.4135859925       -0.8616821049      -15.5955578829
 O        -2.6545637436       -1.7991309360      -15.7145965769
 C        -4.6342856532       -1.0076388157      -14.5425972412
 C        -4.8151507964       -2.4895139625      -14.1408692660
 C        -5.4865522190       -2.3827010705      -12.6345225578
 O        -5.7735289999       -1.3537405313      -12.0947393655
 C        -5.6239698949       -3.6955646269      -11.7612286004
 C        -5.7000702534       -3.1093402336      -10.2670130468
 O        -4.7163535270       -3.0980801994       -9.4803065867
 C        -6.9322277220       -2.4350843715       -9.8223044941
 C        -7.3514555935       -2.7715116386       -8.4162410476
 C        -7.5692908406       -4.3120361385       -8.1829740030
 O        -7.9817134235       -5.0232358976       -9.0378214179
 C        -7.4942007262       -4.9284267096       -6.6538482344
 C        -5.9673840489       -5.2178929833       -6.2487048782
 O        -5.4953220122       -4.4974863204       -5.4612814399
 C        -5.2527440076       -6.3769850782       -6.8837408070
 C        -3.8458559625       -6.4992021388       -6.3083248403
 C        -3.8086923105       -6.9046167721       -4.8210064371
 O        -4.8575532113       -6.8583118166       -4.2214891521
 C        -2.4169797309       -7.4023006646       -4.2704866021
 C        -1.3966545778       -6.2106230542       -4.4321555886
 O        -1.6557295421       -5.1047596991       -3.9983553447
 C         0.1120125619       -6.4649385041       -4.8379741732
 C         0.6025670567       -5.2491215822       -5.5959830603
 C         0.2231233105       -5.1518377326       -7.1942165738
 O        -0.4698322085       -6.0083218269       -7.7115156558
 C         0.7236274941       -3.8661936195       -8.0507677924
 C        -0.0822912196       -2.8206230945       -7.1709203175
 O         0.3078359842       -2.5045274162       -6.0916182857
 C        -1.2394915726       -2.1451336566       -7.8515866928
 C        -1.7233950911       -0.9407331280       -6.9529549799
 C        -2.2211807263       -1.5244145977       -5.6296355437
 O        -2.9967139654       -2.4383512626       -5.5693614483
 C        -1.6979680601       -0.6835036875       -4.2141630415
 C        -3.0631540675       -0.4695996440       -3.5022600565
 O        -3.7724166782       -1.4041958797       -3.2229500834
 C        -3.6023281791        1.0037949110       -3.2364895159
 C        -4.1290825621        1.2596021395       -1.8328341250
 C        -3.1104499912        0.8857272609       -0.7797931106
 O        -1.9901526218        0.5938355455       -1.1080513874
 C        -3.5570685441        0.6635768635        0.8019366237
 C        -3.9490373857       -0.8431002284        0.8191275246
 O        -5.0983776933       -1.1359979383        0.5703177449
 C        -2.8490268396       -1.9309250918        1.0898480694
 C        -3.4047859489       -3.3410773253        1.1673961661
 C        -4.0289322392       -3.8240629785       -0.1858457736
 O        -3.4680309119       -3.6331998089       -1.2092543155
 C        -5.4334698858       -4.5449641053       -0.1897332953
 C        -6.2508403883       -3.7474592638       -1.2891186086
 O        -5.9356713210       -3.8882794394       -2.4345027930
 C        -7.4387797388       -2.8168493509       -0.8400814128
 C        -7.7930607918       -1.7014886730       -1.9578441644
 C        -8.9326841799       -0.7732373215       -1.6708514315
 O        -8.6966593553        0.4001597478       -1.6388473198
 C       -10.5313967825       -1.3187099738       -1.5220086757
 C       -11.1186961042       -1.7593962540       -2.8968041547
 O       -10.5591682098       -1.7149761296       -3.9463758753
 C       -12.3939856747       -2.6566359979       -2.6311895868
 C       -10.5775958543       -2.4234332014       -0.4888230311
 C       -11.3036580495       -0.0911483069       -1.0507198832
 C        -5.3067117108       -5.9507537274       -0.6456305934
 C        -6.1307963585       -4.5800026018        1.1979349747
 C        -2.3284448459        0.8687957912        1.6406544105
 C        -4.7126470440        1.5713120712        1.1779106980
 C        -0.7738360667       -1.6791878558       -3.4685267082
 C        -0.9293218782        0.6066173214       -4.5345630878
 C         2.2661474072       -3.8345055157       -8.0866290092
 C         0.2074387148       -3.9640329735       -9.5939020128
 C        -2.6793216528       -7.8822240657       -2.7989952946
 C        -2.0169962099       -8.6849616053       -5.1376137892
 C        -8.1417887426       -3.8423573341       -5.7269515212
 C        -8.1886480143       -6.3436020131       -6.6260332772
 C        -6.8845717755       -4.5501726406      -12.1046950766
 C        -4.3411381480       -4.5243317518      -11.8290082168
 C        -3.2296515732        1.5663525121      -15.8104604970
 C        -4.7383586078        0.3688918774      -17.3199966188
 C        -1.5412903528       -1.8418234552      -20.9695669464
 C         0.8736735849       -1.4929986171      -21.4189560997
 C        -0.5028686180        3.0156643175      -27.0921097162
 C         1.7958014988        3.2901163216      -26.1153769254
 C        -1.5450976356        6.0793450337      -20.6319109863
 C         0.2448522253        7.8021019810      -20.6660681492
 H         1.5821645895        5.3563791798      -17.8128515420
 H         0.1968452183        6.4391419243      -17.7335385859
 H         1.7687080249        7.0025785545      -18.5396217047
 H         0.6327361507        7.4040323612      -23.3114035783
 H        -0.9102771249        6.8160602080      -23.5154398826
 H         1.6378851815        5.1114848101      -24.1802814856
 H         1.0548198531        6.3177965784      -25.3834615671
 H        -0.9953895900        0.6280393392      -25.7504994897
 H        -1.9253914281        1.4873943084      -24.4427143416
 H         0.2884595941       -0.7061848406      -23.9562989837
 H        -1.4665099757       -0.7972076272      -23.9689320516
 H         1.1243670193       -0.5534098781      -18.1100273197
 H        -0.0749134286       -1.8285584562      -18.5946596781
 H        -0.4719941278        0.6953403361      -16.8832212266
 H        -0.7967052437       -0.9098083267      -16.4634789024
 H        -5.5472118798       -0.5094883580      -14.8471219439
 H        -4.2527850748       -0.3887524126      -13.6306364927
 H        -3.8654501033       -3.1226291863      -14.1121814235
 H        -5.6712863386       -2.9329686237      -14.7163909964
 H        -7.8015958292       -2.5454153684      -10.4556384021
 H        -6.7356470878       -1.4420419734       -9.8954930898
 H        -8.2553494021       -2.1806396406       -8.3497085974
 H        -6.6531655489       -2.3205327676       -7.6508661212
 H        -5.3125217188       -6.4336318224       -7.9601103484
 H        -5.9663336360       -7.1052428811       -6.5756415614
 H        -3.3969881691       -5.5756739040       -6.4659779756
 H        -3.2803778644       -7.1602472652       -6.9390017206
 H         0.4078212914       -7.3924377439       -5.3619732537
 H         0.6785562814       -6.5491158204       -3.9041936313
 H         1.7284608558       -5.0271911286       -5.4545876483
 H         0.0724257572       -4.3793186753       -5.1829439562
 H        -2.1552051808       -2.7442214037       -7.9004085158
 H        -0.9443775194       -1.9062643940       -8.8603503438
 H        -2.5153676684       -0.4121993770       -7.4560003738
 H        -0.9347291897       -0.1556224460       -6.6754945897
 H        -4.4317513693        1.1959905853       -3.9830470425
 H        -2.7066819060        1.6477066316       -3.4432897029
 H        -4.9369374736        0.5455541248       -1.7812969920
 H        -4.6372885084        2.3315154334       -1.7987357633
 H        -2.3819579231       -1.7952755847        2.0966937601
 H        -2.2415151271       -1.9713607315        0.2215361668
 H        -4.2189187407       -3.3132177912        1.9186996395
 H        -2.6193417556       -3.9822078258        1.6354025218
 H        -7.0869785710       -2.2060383373        0.0598441034
 H        -8.1884620119       -3.4833224922       -0.4613275196
 H        -8.1928710324       -2.3290821747       -2.8187753348
 H        -6.7426700101       -1.2605231980       -2.0572240571
 H       -13.0062261588       -2.2857583611       -1.8841033034
 H       -12.0113794571       -3.5857718962       -2.3889173574
 H       -13.1536516938       -2.7254790161       -3.4632750995
 H        -9.9321274429       -3.2430534354       -0.7092630094
 H       -11.5294703104       -2.8243667076       -0.4219110420
 H       -10.3781579283       -2.1792326626        0.5978559694
 H       -10.8007444963        0.4244285513       -0.2838727332
 H       -12.1981743034       -0.3619525812       -0.6130079512
 H       -11.3655667474        0.6036483719       -1.8989436770
 H        -6.2637158637       -6.4608524500       -0.5667781291
 H        -4.6129238178       -6.4777585539        0.0264029778
 H        -4.9252656823       -5.9803535831       -1.6996754349
 H        -7.0707808667       -5.0117451990        1.0201771175
 H        -6.2052700263       -3.5438627113        1.6539220643
 H        -5.5358201874       -5.0799942147        1.8862198645
 H        -2.5509206330        0.6985687427        2.7228685269
 H        -1.9228095490        1.8741990555        1.5977610801
 H        -1.4590231842        0.2736860200        1.3642043067
 H        -4.9351869886        1.2520161881        2.2302856051
 H        -5.5314069499        1.5410394859        0.4527126204
 H        -4.3698540440        2.5781378147        1.0395690981
 H         0.2387905618       -1.6578232263       -3.8605762043
 H        -1.1734217830       -2.6594508610       -3.4597538386
 H        -0.5649989435       -1.4086493445       -2.4730057071
 H        -0.0547698532        0.5100048257       -5.1282433907
 H        -0.6749085615        1.1235256341       -3.5945399209
 H        -1.4758423569        1.3984946742       -5.0470404339
 H         2.7011791942       -2.9606654270       -8.6815227725
 H         2.7366996769       -4.7329813914       -8.4714886154
 H         2.6317655239       -3.6838592172       -7.0795730130
 H        -0.8297956566       -4.1260448256       -9.7464392825
 H         0.6476882472       -4.8156887579      -10.1009115188
 H         0.5520355435       -3.1185022095      -10.1534065789
 H        -3.6684377228       -8.3005859950       -2.8558397725
 H        -2.8115220522       -7.0652039441       -2.1175368199
 H        -2.1523096802       -8.7209557381       -2.3238140483
 H        -2.9273603106       -9.2490994923       -5.3789128435
 H        -1.1906432658       -9.2429811362       -4.6653073213
 H        -1.6279664225       -8.1467286435       -6.0512359477
 H        -9.1608285067       -3.6144199947       -5.9766558505
 H        -7.5749424167       -2.9006426949       -5.8458303301
 H        -8.0301344410       -4.1950388487       -4.6666868748
 H        -7.8808087103       -6.8913337846       -7.5294654859
 H        -9.2890402821       -6.2018123978       -6.6721021372
 H        -7.8729872383       -6.8713414008       -5.7042165873
 H        -6.9999711228       -5.3828702518      -11.4333135251
 H        -7.0012993591       -4.8954407084      -13.2181603433
 H        -7.7649807761       -3.9769952579      -11.8870203332
 H        -3.5042830958       -3.7359087277      -11.9665106136
 H        -4.2976454424       -5.1295031119      -12.7445236640
 H        -4.3412973435       -5.0239612393      -10.9214621032
 H        -2.4193158971        1.5193253044      -15.2039581767
 H        -4.2233906897        1.7416210078      -15.3569404631
 H        -3.2533942260        2.4468519011      -16.5079840315
 H        -4.9180045379       -0.5012237452      -18.0434074840
 H        -4.7471781791        1.0793816780      -18.1777550134
 H        -5.6858559170        0.4073684401      -16.8446079286
 H        -1.7149075180       -2.2935370345      -21.8822963209
 H        -2.5968327201       -1.4932823766      -20.7276613235
 H        -1.2348682426       -2.5644978726      -20.2478011932
 H         0.5357688617       -2.2264386009      -22.2062727050
 H         1.2348080942       -2.0937749229      -20.6232516330
 H         1.7692150318       -0.8884777757      -21.7485653557
 H        -1.5152547842        3.1517604835      -26.8548095714
 H        -0.4175676638        2.0083771014      -27.3716180590
 H        -0.1976575757        3.5708877537      -27.9430550869
 H         2.0638905102        4.2648624269      -26.5712435859
 H         2.1329324820        2.6251813689      -26.8975157635
 H         2.5004900212        3.2232481661      -25.2794479421
 H        -2.0660004259        6.2403928744      -19.6893170155
 H        -1.7260214468        5.0438686554      -20.8613670834
 H        -2.1432823257        6.6619909064      -21.3843185718
 H         1.3096875531        7.9753910200      -20.5890686832
 H        -0.3407520913        7.9720459521      -19.7614869971
 H        -0.1485109632        8.3032511652      -21.4653269216
 Na       -3.9606577763       -3.8835039424       -3.6201455464
 Na       -0.2711890324        2.7289587324      -21.4060544161
