232

 C         1.1804107984        5.8532703009      -18.2567541482
 C         0.4345421028        5.3121136578      -19.5683180962
 O         0.1889459312        4.1358911723      -19.7129728806
 C        -0.0816877488        6.2745412314      -20.7108042384
 C         0.4397024695        5.7284203891      -22.1116183615
 O         1.3734816969        4.9265782987      -22.1447157134
 C        -0.0747731455        6.4196897269      -23.3733720299
 C         0.5260724821        5.8039371297      -24.7367344082
 C        -0.3082883214        4.4705729702      -25.1381510696
 O        -1.4540488749        4.4090528498      -24.8245843910
 C         0.2636037767        3.1620318131      -25.9335133278
 C         0.0226155270        2.1055833304      -24.7889795617
 O         0.6886598676        2.1223178626      -23.7881435331
 C        -1.1868849751        1.1441301312      -24.9040162912
 C        -1.0273148657       -0.0393358205      -23.9279407578
 C        -1.1729563838        0.1988256396      -22.4279244664
 O        -1.8454051240        1.1303224512      -21.9961467296
 C        -0.6389841392       -0.7682094585      -21.2492656414
 C        -0.3021119126        0.0494890732      -20.0118518445
 O         0.2527858971        1.1395511030      -20.0198272206
 C        -0.1984527694       -0.6218228907      -18.5715742351
 C        -0.9610000243        0.1454582690      -17.5180581703
 C        -2.4544576784       -0.0498887993      -17.7249507935
 O        -2.8243097469       -0.1234528456      -18.9139790886
 C        -3.4268027402        0.2556935607      -16.5801218631
 C        -3.5008518190       -1.0195594178      -15.6016622646
 O        -2.5252016802       -1.6865119174      -15.3003386798
 C        -4.8864763574       -1.0998530306      -14.7501936947
 C        -4.7588184817       -2.4157749847      -13.9309640477
 C        -5.5543667345       -2.3693411116      -12.5998321381
 O        -6.0630068460       -1.3086581234      -12.3232592909
 C        -5.6167609881       -3.6339862130      -11.6936333736
 C        -5.6003761138       -3.0065011380      -10.2386082197
 O        -4.5946148679       -2.9803817667       -9.5137289709
 C        -6.9588962753       -2.4582852591       -9.7262604404
 C        -7.1101918764       -2.7633847301       -8.2346744223
 C        -7.5876672139       -4.2313540691       -8.0473738266
 O        -7.9553254840       -4.8926208349       -8.9662877348
 C        -7.5381732026       -5.0782093883       -6.5861641935
 C        -5.9467148304       -5.2183030802       -6.2200676249
 O        -5.4911411230       -4.2554193721       -5.6776862976
 C        -5.1321735189       -6.3038070572       -6.8586261586
 C        -3.7333425955       -6.5450402701       -6.3408295936
 C        -3.6792253794       -7.0351149578       -4.8440282229
 O        -4.6369263291       -7.0794253330       -4.1587419906
 C        -2.2353403253       -7.4566517681       -4.3256314509
 C        -1.2606116888       -6.2631368346       -4.5571761986
 O        -1.4780010730       -5.1646932575       -4.1110748725
 C         0.1963470891       -6.5563125005       -5.0744739269
 C         0.8916026427       -5.2712276576       -5.6778923506
 C         0.5697732633       -5.1147981094       -7.1501176968
 O        -0.0854420369       -5.9677344775       -7.6943878451
 C         0.7811009543       -3.8011680399       -7.8846843659
 C        -0.0422103485       -2.6223989428       -7.1669709218
 O         0.3250797364       -2.1575888906       -6.1317532807
 C        -1.3193039349       -2.0377113262       -7.8549393097
 C        -1.8775186547       -0.9779673166       -6.9135169987
 C        -2.3114327119       -1.5324091498       -5.5430658872
 O        -2.8674110272       -2.5994964882       -5.5505253361
 C        -1.8942693503       -0.8581813595       -4.2021984034
 C        -3.2085322600       -0.5445450995       -3.4926638828
 O        -3.8803231674       -1.4947321135       -3.1092670000
 C        -3.7051761160        0.8479342494       -3.1764265523
 C        -4.1493094093        0.9118051077       -1.6966127957
 C        -3.0326309842        0.8370626046       -0.6954214127
 O        -1.8386977742        0.7059737042       -0.8568007807
 C        -3.5369113357        0.6750791377        0.8180158555
 C        -3.8734258562       -0.8817992941        0.8886792519
 O        -4.9664159474       -1.2389016599        0.4559689649
 C        -2.7665040216       -1.9370258152        1.1653608609
 C        -3.3302141000       -3.4258254247        1.2133805029
 C        -3.9258646584       -3.8160641247       -0.2205135703
 O        -3.3629164857       -3.6952427148       -1.2642769769
 C        -5.4039389849       -4.5123145609       -0.2482872716
 C        -6.2685927657       -3.8567032755       -1.4138296198
 O        -5.9585867537       -3.9193571222       -2.5721015615
 C        -7.5736765524       -3.0179157403       -0.8952652554
 C        -8.1554287267       -2.1528012716       -2.1140789342
 C        -9.0350431849       -1.0663652095       -1.5182848602
 O        -8.5468406712       -0.0161441347       -1.1471347153
 C       -10.5808129549       -1.2604948209       -1.3679299548
 C       -11.0882094230       -1.6926335368       -2.8674373066
 O       -10.5524696156       -1.1999210357       -3.7839607756
 C       -12.4396455566       -2.3836624050       -3.0216403900
 C       -10.8218770295       -2.3249265130       -0.2557212973
 C       -11.3425926533        0.0726550838       -0.9534997293
 C        -5.0448983366       -5.9384551348       -0.6664239015
 C        -6.2518919599       -4.5609351438        1.1035234582
 C        -2.4807480645        1.0701614907        1.8180446442
 C        -4.8466034658        1.5511478614        1.0490289788
 C        -1.2245645147       -1.8242040012       -3.2339900745
 C        -0.9849198284        0.3483383830       -4.3179952372
 C         2.2328130532       -3.2841697499       -7.5422273634
 C         0.6512537125       -4.1024818741       -9.3181349861
 C        -2.2895525050       -7.4929073861       -2.8521369628
 C        -1.7269003501       -8.8227952735       -5.0359077273
 C        -8.1312955430       -4.2407027709       -5.4788978540
 C        -8.3248998428       -6.3562506895       -6.7784000348
 C        -6.9129060773       -4.3467081196      -12.0768802797
 C        -4.3068404087       -4.5466812720      -11.7845915938
 C        -3.0236866654        1.4794468897      -15.6906745165
 C        -4.8134622664        0.4964149426      -17.3374878024
 C        -1.6524819270       -1.9523245859      -21.0712811950
 C         0.6590305260       -1.3898356494      -21.8568936832
 C        -0.7150585129        2.9579401582      -27.2028644736
 C         1.7161759164        3.2434832527      -26.3126784110
 C        -1.6576300206        6.3946571649      -20.6881490740
 C         0.5467944103        7.6815446235      -20.6759762670
 H         1.1342243899        5.1532506257      -17.4494830856
 H         0.7806492596        6.8426787211      -18.0357469204
 H         2.2029273882        6.0485697896      -18.4996397415
 H         0.0859253889        7.5239080821      -23.1919704941
 H        -1.1608864852        6.3847041926      -23.3786791212
 H         1.5991145419        5.5784385616      -24.5227888571
 H         0.4381521334        6.5810451578      -25.5648904204
 H        -1.3779558916        0.7798643006      -25.9376287784
 H        -2.0815989967        1.7784052290      -24.6409101856
 H        -0.1554627055       -0.6415595588      -24.1161243961
 H        -1.8186684404       -0.7366118569      -24.0715522956
 H         0.8612759454       -0.7718395712      -18.4132601800
 H        -0.6717568237       -1.5797146520      -18.6274603116
 H        -0.7652571536        1.2518372996      -17.6372481605
 H        -0.6624880380       -0.1169749108      -16.4466326689
 H        -5.6775992652       -1.0780687289      -15.4385406996
 H        -4.7853788636       -0.1946644010      -14.1727226300
 H        -3.6635686666       -2.5980542564      -13.7322682797
 H        -5.1183283095       -3.2589892244      -14.4743305104
 H        -7.7544782786       -3.0411495508      -10.3846434784
 H        -7.0371835844       -1.3381396009       -9.8621016582
 H        -7.8491639515       -2.1266997959       -7.7748002857
 H        -6.0497338070       -2.5272941420       -7.8682988592
 H        -5.3024000407       -5.9827570271       -7.8824553559
 H        -5.6918360016       -7.2519983186       -6.7198099466
 H        -3.0890485116       -5.6594319655       -6.3590462178
 H        -3.2534884847       -7.3111178186       -7.0178617540
 H         0.3291748506       -7.4130486523       -5.7911121718
 H         0.8163525833       -6.9524079815       -4.2935138949
 H         1.9482894869       -5.4045787790       -5.7170060893
 H         0.7463553345       -4.3669480836       -5.0814099773
 H        -1.9402248081       -2.9477706346       -8.1135223672
 H        -1.1204933556       -1.5047699752       -8.7871135863
 H        -2.8146089545       -0.4457092194       -7.3045943716
 H        -1.1231156278       -0.0678453975       -6.9533178208
 H        -4.6253304580        0.9362869250       -3.7448450188
 H        -3.0615995221        1.6524289742       -3.4476286298
 H        -4.8508339293        0.1137913260       -1.4199094753
 H        -4.7413313446        1.8437931781       -1.6937574811
 H        -2.2465775937       -1.6764909868        2.1471187052
 H        -2.1279382036       -1.8434065172        0.2900025955
 H        -4.0952588410       -3.4606374935        1.9970107301
 H        -2.6005138153       -4.1546431263        1.5431099973
 H        -7.1664739111       -2.2555650897       -0.1971162764
 H        -8.3484692602       -3.4855889208       -0.3846987045
 H        -8.6894707421       -2.8313816256       -2.7771277724
 H        -7.3010859312       -1.6757790050       -2.5821109723
 H       -13.0892684468       -1.7337306151       -2.4536119292
 H       -12.5563961187       -3.4216388485       -2.6993826516
 H       -12.9011375356       -2.1808443040       -4.0719436910
 H       -10.9924400070       -3.3267459294       -0.6649935750
 H       -11.6323313158       -2.1420945658        0.3532011602
 H        -9.9727545928       -2.4860114397        0.4816044577
 H       -11.1397735599        0.3584326852        0.0819511507
 H       -12.4337055863       -0.0711384262       -1.0432766381
 H       -10.9515961614        0.9333993219       -1.6293668222
 H        -5.7932465000       -6.6352794112       -0.4757716722
 H        -4.2674606947       -6.2599524441        0.0474784691
 H        -4.7260121231       -5.9747104648       -1.7043368567
 H        -7.2968981960       -4.6930434802        0.7734475660
 H        -6.1406898286       -3.5734283045        1.5633933699
 H        -5.9759941048       -5.3536891032        1.8427260056
 H        -2.6082722251        0.6766610391        2.8052602911
 H        -2.1291763671        2.0773504481        1.8695106949
 H        -1.5197705782        0.7022458979        1.4261702834
 H        -5.0468532574        1.6469328897        2.1009424852
 H        -5.6634443272        1.0423709325        0.6063666708
 H        -4.7721458330        2.5055098382        0.5137651873
 H        -0.2785538879       -2.2631405193       -3.7283801730
 H        -1.9675498169       -2.5436362329       -2.8415615180
 H        -0.7869129662       -1.3986229683       -2.3352114834
 H        -0.1349771636        0.1478598267       -4.9952607533
 H        -0.5493197901        0.7591011671       -3.4097570904
 H        -1.5650010285        1.2143704651       -4.6862283391
 H         2.6806360414       -2.9876613367       -8.4923673986
 H         2.9028763278       -4.0722318639       -7.1952869845
 H         2.2697596295       -2.4865940700       -6.8046398600
 H        -0.3761994891       -4.4933481044       -9.5329242574
 H         1.3271828464       -4.9570984328       -9.5596616257
 H         0.9010421879       -3.2746432685      -10.0189788644
 H        -2.6608262575       -8.4248240894       -2.4399514108
 H        -2.8983188211       -6.6694877571       -2.5053178729
 H        -1.2702644862       -7.4344521113       -2.3189515065
 H        -2.5334019515       -9.3747725889       -5.4863837666
 H        -1.2265371387       -9.3466559083       -4.2667638414
 H        -1.0444070764       -8.6317181651       -5.8323661312
 H        -9.1607579153       -4.2697478295       -5.6062154967
 H        -7.7997145834       -3.2436177329       -5.4886464331
 H        -7.8798568611       -4.7104272184       -4.4762669547
 H        -7.8694998150       -7.0118172062       -7.5227462562
 H        -9.2968872863       -6.1529208628       -7.1371444463
 H        -8.3299407676       -6.8317061059       -5.7936612281
 H        -7.4088417207       -5.1176732913      -11.5319671836
 H        -6.6292541858       -4.7931439947      -13.0478071893
 H        -7.6238982825       -3.6330530378      -12.2592241259
 H        -3.5258472532       -3.9766784396      -11.2318144363
 H        -4.0527615595       -4.8035648170      -12.8352470871
 H        -4.6078173996       -5.4019530052      -11.2575965238
 H        -2.0810946258        1.2867695299      -15.2471849897
 H        -3.8576130641        1.6193219574      -14.9845287537
 H        -2.9040335974        2.4415631378      -16.2846466269
 H        -5.1424008905       -0.2282774342      -18.0320949263
 H        -4.7437193930        1.2496278631      -18.0824803749
 H        -5.6849203116        0.6059032776      -16.8030511958
 H        -1.7454585560       -2.5279168847      -21.9881237689
 H        -2.7602889292       -1.6273463119      -21.0389805443
 H        -1.4960202454       -2.4822213625      -20.1490336892
 H         0.5111041067       -1.9569491201      -22.7477294206
 H         1.1907267899       -2.0118584277      -21.1842996688
 H         1.2964850972       -0.5281391652      -22.1156915274
 H        -1.7342059558        2.8489521108      -26.8218278824
 H        -0.5099844981        2.1144997076      -27.8342109317
 H        -0.6662839316        3.8759841077      -27.8596661137
 H         2.1121143650        3.9631121811      -26.9698080304
 H         2.0261128152        2.3143570556      -26.8323477746
 H         2.2845952882        3.4276740903      -25.3931142275
 H        -2.1533652360        6.7925171719      -19.8614551409
 H        -1.9672189877        5.3463542127      -20.6719130328
 H        -2.1391382723        6.8922995483      -21.5447283961
 H         1.5764496794        7.6925472738      -21.0607910442
 H         0.4035037386        8.0654256602      -19.6274273768
 H        -0.0495537559        8.1004985036      -21.4517135268
 Na       -3.7020628046       -3.9279698644       -3.7018465078
 Na        0.3044221288        2.8926487224      -21.6214994588
