232

 C         1.0540163466        5.7283264125      -18.3824944590
 C         0.3211436563        5.3185292722      -19.6459132945
 O         0.0214803743        4.1328605205      -19.6431428216
 C        -0.0106258431        6.3552637551      -20.7495560044
 C         0.5509207209        5.7911849797      -22.1835073525
 O         1.4152598770        4.9374649441      -22.1984188435
 C        -0.0270280629        6.3078580928      -23.4661996546
 C         0.4285533796        5.5796358217      -24.6749859650
 C        -0.5113593352        4.4348955398      -25.0753005324
 O        -1.6910303287        4.5103467084      -24.7251185658
 C         0.1210662944        3.2207089046      -25.8550142569
 C        -0.0535739971        2.0585066883      -24.8078904508
 O         0.8106930097        1.9965815517      -23.9246404267
 C        -1.2471153350        1.1444664945      -24.8697191649
 C        -1.0600002788       -0.0147181263      -23.9441786605
 C        -1.3702898598        0.3092566238      -22.3899844687
 O        -1.8898763944        1.3611618419      -22.0604214546
 C        -0.6800538737       -0.7303090759      -21.3934493339
 C        -0.2174494376       -0.0434427327      -20.0788581741
 O         0.2457158830        1.1030201982      -20.1943051192
 C        -0.2766797643       -0.7049393092      -18.6804790857
 C        -0.9495399148        0.1946882645      -17.6576191221
 C        -2.4863989432        0.1543080473      -17.8462192993
 O        -2.9523278000       -0.1437801012      -18.9184097774
 C        -3.4378740975        0.2826286459      -16.5847258787
 C        -3.4876639575       -0.9513778094      -15.6390409435
 O        -2.5419852138       -1.5754650016      -15.3432349200
 C        -4.8826201775       -1.2319272421      -14.9172789033
 C        -4.6083726164       -2.4070783499      -13.9278423306
 C        -5.5379649051       -2.2852149081      -12.6874309122
 O        -6.1519460631       -1.3192318511      -12.3433649453
 C        -5.5740238789       -3.5603667364      -11.7153430596
 C        -5.6710951023       -3.0376996226      -10.1983352766
 O        -4.6387627639       -3.0240220474       -9.5344642067
 C        -6.9594360858       -2.4729535280       -9.5276832539
 C        -7.0595575416       -2.8705799443       -8.0539259476
 C        -7.5624514614       -4.2920976815       -7.9416306590
 O        -7.9063760450       -4.9094719573       -8.9211923867
 C        -7.5395764123       -5.0302457352       -6.5513553367
 C        -5.9076840518       -5.1110787602       -6.2429329043
 O        -5.3754818105       -4.2485736203       -5.6376222077
 C        -5.1335465896       -6.3852140242       -6.9072929034
 C        -3.7517201927       -6.5057017791       -6.2869842571
 C        -3.5972282152       -6.9772131735       -4.8924369192
 O        -4.5976694746       -7.1012790413       -4.1500689341
 C        -2.1343750124       -7.3808099179       -4.3641692375
 C        -1.0999814057       -6.2840175871       -4.6077296003
 O        -1.4278718955       -5.0941145833       -4.3953183872
 C         0.3116321064       -6.5872618103       -5.0546610562
 C         0.9580415360       -5.3339028223       -5.5718119189
 C         0.4252824978       -5.1034839954       -7.0530187108
 O        -0.0264962944       -6.0150185512       -7.7187501463
 C         0.8819763381       -3.7023070907       -7.7804940442
 C        -0.0110737906       -2.5275570792       -7.1630573982
 O         0.2671525546       -2.0724205687       -6.0757842800
 C        -1.3195620095       -2.0520762396       -7.8254891270
 C        -2.0442728723       -0.9439149422       -6.9410923620
 C        -2.2025356745       -1.6797680319       -5.6290691045
 O        -2.7250471310       -2.7906512719       -5.5721946714
 C        -1.9033530937       -0.9316731481       -4.2495789581
 C        -3.3102968326       -0.5956086911       -3.4638117469
 O        -3.9796781577       -1.5314070063       -3.1189474417
 C        -3.8460862083        0.8397236747       -3.1657872894
 C        -4.1915394420        0.9745026312       -1.6686177659
 C        -3.0845757927        0.7463960357       -0.6150333339
 O        -1.9395163093        0.7755103462       -0.9416731609
 C        -3.5368737519        0.6073813731        0.8896983153
 C        -3.8618196441       -0.9082619800        0.8435674184
 O        -4.9309951713       -1.3296930493        0.5003218418
 C        -2.7782182936       -1.9438477781        1.1544477502
 C        -3.3721040820       -3.2905495098        1.0605460935
 C        -4.0581179391       -3.7224807295       -0.2077620714
 O        -3.2815853843       -3.7362739081       -1.1568346049
 C        -5.4246229288       -4.4704820129       -0.2900782718
 C        -6.1776891202       -3.7641792606       -1.4347410229
 O        -5.9600874464       -3.8741684897       -2.6428295424
 C        -7.4189287011       -3.0906395496       -0.9880266047
 C        -8.3282570460       -2.3548789323       -2.0523459736
 C        -9.0274968705       -1.1263274741       -1.4431428225
 O        -8.4316065172       -0.1957941099       -0.9953301835
 C       -10.6253466899       -1.2038587335       -1.3822723769
 C       -11.1654505913       -1.4507018453       -2.7782197487
 O       -10.4453949789       -1.1548395389       -3.7628662541
 C       -12.4196165157       -2.2895608673       -3.0040994695
 C       -10.9563356587       -2.3332715320       -0.3671160676
 C       -11.3214921942        0.0673942167       -0.9447653340
 C        -5.0262878692       -5.9845560471       -0.7390589486
 C        -6.1945110052       -4.5422326959        1.0204692584
 C        -2.4893218256        1.0698561768        1.9319114884
 C        -4.8657975654        1.4638203698        1.1429181537
 C        -1.1857863251       -2.0018291300       -3.2447126552
 C        -0.9661571570        0.2756743635       -4.3679075785
 C         2.4470872706       -3.2984143840       -7.4542112647
 C         0.6876469014       -3.8807583459       -9.2314254131
 C        -2.1862246637       -7.5381256045       -2.7996776873
 C        -1.7237327445       -8.7346705029       -4.9337684738
 C        -8.2003826812       -4.2112746956       -5.4035311390
 C        -8.1728249369       -6.3896371265       -6.8117411644
 C        -6.9012274510       -4.3083038833      -11.9406893903
 C        -4.3417515808       -4.4542574120      -11.8338886940
 C        -2.9165201171        1.3890784856      -15.8148044576
 C        -4.8554443413        0.5369499819      -17.1537957910
 C        -1.6616431163       -1.9596447265      -21.2170833980
 C         0.6610827328       -1.3656773271      -21.8299330836
 C        -0.6592204903        2.9049974722      -27.2041712554
 C         1.6020412539        3.2644953751      -26.1707875267
 C        -1.5165465251        6.3355143225      -20.6859315436
 C         0.6398584623        7.8081097998      -20.6418608775
 H         0.8450544585        5.0183008517      -17.6071580223
 H         0.8992168872        6.8039932247      -18.1614696898
 H         2.1316033709        5.6667117037      -18.6196335600
 H         0.2997752409        7.2997068069      -23.4423513808
 H        -1.1214872487        6.4547119472      -23.4053502689
 H         1.5517180946        5.3180051235      -24.4266215542
 H         0.3856518513        6.2859166757      -25.5207945921
 H        -1.4659875223        0.8450075733      -25.8491925880
 H        -2.1913704544        1.8280869212      -24.5351350268
 H        -0.1015935991       -0.4544760561      -23.9748804583
 H        -1.6787000923       -0.8270431280      -24.2209047099
 H         0.7940304859       -0.9668915535      -18.4928688057
 H        -0.8373328384       -1.6240636538      -18.7586112603
 H        -0.6117288408        1.2129286642      -17.7678005653
 H        -0.6978309947       -0.1315130384      -16.6626947573
 H        -5.4758196239       -1.5721503090      -15.7497940908
 H        -5.2116761684       -0.2656501754      -14.4320760534
 H        -3.5375692913       -2.3999109270      -13.5550126362
 H        -4.7843157455       -3.4495213266      -14.3656574793
 H        -7.8051380487       -2.8676499851      -10.0788258899
 H        -6.9107650854       -1.3998661195       -9.5761710740
 H        -7.7878751484       -2.2052629587       -7.5341533418
 H        -5.9890465127       -2.7077653123       -7.7074459952
 H        -5.1817525457       -6.1109024760       -7.9545370842
 H        -5.6412311804       -7.2959323855       -6.7042274222
 H        -3.2890431561       -5.5607907603       -6.2253199872
 H        -3.1452791321       -7.1538301074       -6.8965603570
 H         0.2568589719       -7.4084099389       -5.7718882827
 H         0.9532631714       -7.0800992624       -4.3319712915
 H         2.0961388707       -5.1921745200       -5.4865727994
 H         0.5315258483       -4.5967307391       -4.9009118565
 H        -1.8791363267       -3.0147608472       -7.8930321458
 H        -1.1209550307       -1.7581521519       -8.8678391259
 H        -3.0635263239       -0.5336685753       -7.2478069410
 H        -1.4787896193        0.0490751684       -6.7710675318
 H        -4.7177482121        1.1109727219       -3.7953848512
 H        -2.9874740169        1.5237413908       -3.4108156620
 H        -4.9581373275        0.2551658739       -1.4392692545
 H        -4.7622310603        2.0085679031       -1.6493800861
 H        -2.3301332789       -1.8385794293        2.1950016313
 H        -2.0022612601       -1.8603509799        0.3756727908
 H        -3.9379139928       -3.4597312386        1.9764123896
 H        -2.5312238162       -4.0136735305        1.1670216573
 H        -7.1206569359       -2.3906757557       -0.1860094367
 H        -8.0861532185       -3.7549611299       -0.5115011458
 H        -9.1007841215       -3.1354433621       -2.3271158635
 H        -7.7935784816       -1.9276880258       -3.0070473778
 H       -13.3451318415       -1.8481765942       -2.6356832754
 H       -12.2613815802       -3.2776780152       -2.6030590819
 H       -12.6312590310       -2.3236630891       -4.0826129947
 H       -10.8684396106       -3.3172494496       -0.7487228554
 H       -11.9708885038       -2.2924447803        0.0222974856
 H       -10.3051754114       -2.3147116069        0.5231926490
 H       -10.7988607544        0.3587959342       -0.0464116450
 H       -12.3910169963        0.0814560887       -0.8154747608
 H       -10.9672259478        0.8036431641       -1.6512595805
 H        -5.7978717119       -6.6958551197       -0.8894687364
 H        -4.5198535313       -6.3555943746        0.0802689132
 H        -4.4102635815       -5.9096405638       -1.6015150445
 H        -7.2268419801       -4.7326767326        0.8566814417
 H        -6.0199027430       -3.5022726358        1.5177753869
 H        -5.8494621623       -5.3320676719        1.6358475596
 H        -2.5568521388        0.5977683052        2.9738152429
 H        -2.3336799073        2.1370537553        2.0437708693
 H        -1.5000064242        0.8938514609        1.5838268470
 H        -5.0669638483        1.5761367113        2.2399400693
 H        -5.7194558894        0.8803069761        0.7251280653
 H        -4.7968983862        2.4206309641        0.6723997996
 H        -0.3674610026       -2.4279323370       -3.7814603659
 H        -1.9445907141       -2.7296035667       -2.9238014249
 H        -0.7140702384       -1.6941982622       -2.2748208972
 H         0.0122533787       -0.0143182755       -4.7451308047
 H        -0.7407394380        0.7854820543       -3.3765493556
 H        -1.3970901582        1.1291948225       -4.9512618458
 H         2.7256183059       -2.6746209302       -8.3676447969
 H         3.1738115314       -4.1201147211       -7.4731328475
 H         2.5487531487       -2.7431583837       -6.5344590449
 H        -0.2228345497       -4.4527561354       -9.3712230947
 H         1.5000227895       -4.4971515789       -9.6546826575
 H         0.6179367714       -2.9712980419       -9.8344362340
 H        -2.8982817505       -8.3990951818       -2.6967487510
 H        -2.6098187147       -6.6857483160       -2.2309531534
 H        -1.3195663346       -7.9135644465       -2.2550936987
 H        -2.4246781285       -9.5206080904       -4.8161059134
 H        -0.8025132629       -8.9175144526       -4.4134295736
 H        -1.5444547248       -8.6434272011       -6.0447766873
 H        -9.1946102640       -3.8487838614       -5.6499703936
 H        -7.5250210390       -3.4212338677       -5.1135199280
 H        -8.2456510591       -4.8656047832       -4.5899081316
 H        -7.5113818612       -6.9915765256       -7.4497581167
 H        -9.1166129321       -6.2791481960       -7.4458358928
 H        -8.3529119090       -6.9066188083       -5.8567099344
 H        -7.2260604892       -4.9347393017      -11.1836395650
 H        -6.8743662943       -4.9793645762      -12.8039151762
 H        -7.6815439807       -3.5707903336      -12.0118144468
 H        -3.5170938100       -4.0302757769      -11.1597593555
 H        -4.1099646193       -4.5899259367      -12.8806200663
 H        -4.7157779964       -5.4258868337      -11.5148872965
 H        -1.9270664213        1.1654032798      -15.5315300003
 H        -3.5932793052        1.5131204017      -14.9074614881
 H        -2.8721716419        2.3228636179      -16.4059649138
 H        -5.4236547577       -0.2614203599      -17.6201884984
 H        -4.8013996189        1.1108253641      -18.0419089252
 H        -5.6059717809        0.9417235071      -16.5537163248
 H        -2.0687601627       -2.3917182220      -22.0795353039
 H        -2.5983866938       -1.6632266344      -20.6924426746
 H        -1.1819012826       -2.6412275115      -20.4663568122
 H         0.6752187902       -2.0889812744      -22.6653768239
 H         0.9017710268       -1.9110621697      -20.9816822243
 H         1.4466406562       -0.6479565316      -22.0332237044
 H        -1.6894740638        2.9530262176      -27.0737253487
 H        -0.4602809039        1.8956137932      -27.4337148438
 H        -0.4136231414        3.4757036815      -27.9993383189
 H         1.8744534285        4.0076869523      -26.9846687372
 H         2.0746554672        2.3829244186      -26.5302024670
 H         2.1240117893        3.7190803738      -25.3328805595
 H        -2.0153657836        6.7817532372      -19.8020657315
 H        -1.9394761034        5.3657084228      -20.7149682338
 H        -1.8965729423        6.9593775330      -21.5060844096
 H         1.7057040241        7.6808333092      -20.9066829498
 H         0.5132472560        8.0564517302      -19.6243055648
 H         0.1844396994        8.3768000615      -21.3695455120
 Na       -3.8486511143       -3.8681981427       -3.6981884500
 Na        0.4526850405        2.9478734952      -21.5567253833
