232

 C         1.0825068286        5.7675868315      -18.3355931367
 C         0.3741069538        5.3011798626      -19.6495738958
 O        -0.1883783831        4.2168868508      -19.7638873852
 C         0.0647756246        6.2980862365      -20.8277099621
 C         0.5956632639        5.7748383215      -22.1578182882
 O         1.4523252746        4.9226075731      -22.2187665881
 C         0.0103780341        6.3877169948      -23.5486493221
 C         0.3798756494        5.4864753321      -24.6838832701
 C        -0.6689430163        4.4707293022      -25.0793920008
 O        -1.8513061205        4.4525764326      -24.7436992287
 C         0.0076522318        3.2141241802      -25.7480370266
 C        -0.1191937941        2.0485888735      -24.7477513315
 O         0.8392072213        1.8640960889      -23.9868900574
 C        -1.3729715102        1.1555086491      -24.7540496923
 C        -1.1924555851       -0.0646674161      -23.9333332670
 C        -1.2552513476        0.3868194587      -22.3980180816
 O        -1.7830857463        1.4300812727      -22.1244496421
 C        -0.6731511748       -0.7272702824      -21.4048491746
 C        -0.3101497390       -0.0046410827      -20.1347212302
 O         0.2792736840        1.0666557774      -20.2365645560
 C        -0.3484624685       -0.7406296502      -18.8520686570
 C        -1.0171299299        0.1081555257      -17.7654946585
 C        -2.5549010045        0.0306583120      -17.9533162916
 O        -3.0364682785       -0.1411102367      -19.0278929133
 C        -3.4788313175        0.3633222532      -16.6401889508
 C        -3.5047356419       -0.9475556569      -15.7017266768
 O        -2.4083552591       -1.4437976936      -15.4672332757
 C        -4.8079408957       -1.4426009412      -15.0188640919
 C        -4.6115034657       -2.3923467323      -13.8454303298
 C        -5.5034009167       -2.2170520260      -12.6242268019
 O        -6.2459749032       -1.2475703371      -12.4867246648
 C        -5.6298176156       -3.4867323724      -11.6048570660
 C        -5.6429081491       -2.9843256741      -10.1157749264
 O        -4.6236305392       -3.0748243364       -9.5021482149
 C        -6.8735403928       -2.3926994481       -9.4380977578
 C        -7.0034725821       -2.8865839526       -7.9394053308
 C        -7.5111332141       -4.3190629747       -7.9093580851
 O        -7.8685746177       -4.9428985699       -8.9282555383
 C        -7.3851113346       -5.0871972047       -6.5152982924
 C        -5.9306039190       -5.1595368362       -6.2551179703
 O        -5.2777346263       -4.3158576797       -5.5864749835
 C        -5.1155157709       -6.3423352626       -6.7548945906
 C        -3.6326613127       -6.3379139526       -6.3415268919
 C        -3.5276956320       -6.9483337913       -4.8699431002
 O        -4.4833814775       -7.1091390247       -4.1263728007
 C        -2.1350991372       -7.4258924905       -4.3184400493
 C        -1.1030523111       -6.2180475849       -4.6140650129
 O        -1.4643722129       -5.0396921317       -4.6624670825
 C         0.3234275731       -6.4876357880       -4.9944738564
 C         1.0714387965       -5.3299310223       -5.5906589286
 C         0.6438823462       -5.0025494629       -7.0077164991
 O         0.0205784738       -5.8245630080       -7.6345588925
 C         0.9365900226       -3.5959349467       -7.7173799557
 C        -0.0191855134       -2.5447112684       -7.0837704434
 O         0.2708402713       -1.9964132146       -5.9963610493
 C        -1.2725144088       -2.1208259567       -7.8509110457
 C        -2.0359314884       -1.1290727356       -6.9591268543
 C        -2.2616729404       -1.7338396657       -5.5230331238
 O        -2.5902463833       -2.9103735965       -5.5238282029
 C        -1.9751843518       -1.0227522499       -4.1574167167
 C        -3.3137908922       -0.7144898255       -3.4029865206
 O        -4.1678644461       -1.5433074197       -3.1727822601
 C        -3.7575628298        0.7622372866       -3.1001254103
 C        -4.2836142411        1.0160978159       -1.6796385130
 C        -3.1579779486        0.8823713864       -0.6156134535
 O        -1.9931455746        0.7964098614       -1.0029723586
 C        -3.5891591702        0.5759330436        0.8488772586
 C        -3.9152470724       -0.9118912082        0.8719593922
 O        -5.0026284051       -1.3432205065        0.5205108389
 C        -2.7499563163       -1.9363452105        1.1809464113
 C        -3.3166867508       -3.3682707502        1.2013130049
 C        -3.9099483037       -3.8254111027       -0.2462723629
 O        -3.2574724266       -3.6919522515       -1.3056174818
 C        -5.3337138805       -4.4191137814       -0.3186189683
 C        -6.3096903105       -3.8089198839       -1.5205331717
 O        -5.8723087010       -3.8383532424       -2.6637909868
 C        -7.5019791787       -3.0232274949       -0.9983873695
 C        -8.4630163623       -2.5004698675       -2.0295147450
 C        -9.0918042874       -1.1732689773       -1.3957177505
 O        -8.3475486082       -0.3738686129       -0.8500259121
 C       -10.6138646135       -1.1463155871       -1.3504509085
 C       -11.1015934453       -1.4779580255       -2.8453399246
 O       -10.3889488015       -1.0664695179       -3.7662890638
 C       -12.4484731563       -2.2199565287       -3.0349673939
 C       -11.1291614904       -2.3609962987       -0.4551795963
 C       -11.1887352474        0.2134653943       -0.8390167932
 C        -5.0642119821       -5.9554819400       -0.8469788815
 C        -6.0204550690       -4.5404437001        0.9942312987
 C        -2.5238130367        0.9727660298        1.8599686145
 C        -4.8853363070        1.3023653056        1.2730521451
 C        -1.1406938192       -2.0826449933       -3.3508390233
 C        -1.0376134340        0.1880997019       -4.3819207764
 C         2.4066423633       -3.3960285058       -7.3942301158
 C         0.7034160547       -3.6206141503       -9.2715077092
 C        -2.1849596306       -7.6051477104       -2.6826845380
 C        -1.7575361894       -8.7306685518       -4.9214261103
 C        -8.2073151760       -4.2304397749       -5.4305540665
 C        -8.0862559605       -6.4625349551       -6.6914141058
 C        -6.9419862011       -4.3223449413      -11.9464683463
 C        -4.4039178308       -4.4474058682      -11.8297353452
 C        -2.8471283390        1.5852593761      -15.7463249658
 C        -4.9378583679        0.6805662246      -17.0329837580
 C        -1.7697858314       -1.8613276170      -21.3033959307
 C         0.6739529191       -1.3223333743      -21.9264929140
 C        -0.6549047113        2.8935106714      -27.1070846094
 C         1.5002863377        3.3822568110      -26.0968307160
 C        -1.4652169227        6.3942774249      -20.8132008321
 C         0.6803517929        7.7450113978      -20.5413647779
 H         0.7288691762        5.1183554878      -17.4939240687
 H         0.8814884617        6.8195711637      -18.2360814808
 H         2.1945258297        5.6946001639      -18.3873591900
 H         0.2345035572        7.4270156057      -23.5860066172
 H        -1.0805323478        6.3871990233      -23.4570905903
 H         1.2833372006        5.0258047849      -24.3176044614
 H         0.5633648675        6.0020063339      -25.6189861156
 H        -1.4623946132        0.8537535389      -25.8360262084
 H        -2.2459412045        1.7295391945      -24.5635875150
 H        -0.2146855103       -0.5103817275      -24.1133169365
 H        -1.8576302874       -0.9242469634      -24.1640308403
 H         0.7681137682       -0.7931819276      -18.7532524221
 H        -0.7270933564       -1.7949840252      -18.9339965492
 H        -0.7863075985        1.1355774552      -17.9052385177
 H        -0.6589644436       -0.2005285222      -16.8273475479
 H        -5.3406877695       -1.9562392118      -15.8976006033
 H        -5.2587093506       -0.4887337113      -14.6383616345
 H        -3.6310733027       -2.2370260426      -13.3637450778
 H        -4.6418551425       -3.5014755307      -14.1271601634
 H        -7.7136461115       -2.6898311798       -9.9147207875
 H        -6.7318797562       -1.3515242651       -9.4858418819
 H        -7.7639212599       -2.2154166900       -7.4383931615
 H        -6.0471611610       -2.8707253253       -7.4733147067
 H        -5.2346304782       -6.2158278124       -7.8449958451
 H        -5.5454026857       -7.2546732295       -6.3579326500
 H        -3.1854212682       -5.3579125689       -6.3494781726
 H        -3.1659771787       -7.0009085622       -7.0047995581
 H         0.3828576766       -7.3743912979       -5.5659968010
 H         0.9788329502       -6.8495440676       -4.1601432767
 H         2.2001312473       -5.4598844025       -5.4838116044
 H         0.8366765670       -4.4721171627       -4.9135795132
 H        -1.8707795134       -2.9480447674       -8.1575864492
 H        -0.9155456183       -1.6334429298       -8.7820561310
 H        -3.0337449018       -1.0121985006       -7.3663279270
 H        -1.6914657642       -0.1732384730       -6.9317202122
 H        -4.5082012561        1.0528296566       -3.8932424219
 H        -2.8459428539        1.4161960639       -3.2418522371
 H        -5.1291885166        0.2865458632       -1.4439245600
 H        -4.7712524690        1.9950224409       -1.7256600044
 H        -2.2444729393       -1.6932656807        2.1082222328
 H        -2.0091955908       -1.8414961418        0.3081534022
 H        -4.1381218910       -3.3022466209        1.9245786245
 H        -2.6269236193       -4.0955709292        1.6861069056
 H        -7.0768848495       -2.1896945191       -0.4557241203
 H        -8.1471127926       -3.5785609056       -0.2031409900
 H        -9.2009527933       -3.3255668626       -2.3038942630
 H        -7.9433449009       -2.0909101326       -2.9521445974
 H       -13.2754489640       -1.6563899253       -2.5739688865
 H       -12.3648593830       -3.1901146589       -2.5439853673
 H       -12.7241182150       -2.3409468918       -3.9986850668
 H       -10.6676748914       -3.3132590276       -0.6590483964
 H       -12.2495251547       -2.5883691981       -0.5401098411
 H       -10.9664621612       -2.2034895196        0.5504950446
 H       -10.5356015430        0.4743293834       -0.0157291290
 H       -12.2408492667        0.2183453135       -0.5758191459
 H       -11.0291422230        0.9255496850       -1.5517261929
 H        -6.0050689550       -6.4145702287       -1.1993849686
 H        -4.7728499649       -6.5998281624       -0.0576823900
 H        -4.4244398802       -5.9053816223       -1.6787932763
 H        -6.7863894665       -5.3126396540        0.9916419960
 H        -6.3472868535       -3.5747508587        1.2968928108
 H        -5.2890162650       -4.9793124970        1.6822267431
 H        -2.6537757337        0.5034150605        2.8476816466
 H        -2.4619212988        2.0549587271        2.0389756735
 H        -1.4691021599        0.8351558019        1.5760680410
 H        -5.0735064984        1.2148776868        2.3634671291
 H        -5.7654351507        0.8056871817        0.7561838549
 H        -4.7742822674        2.3984125785        1.0542342946
 H        -0.3049362613       -2.3106596941       -3.9442161419
 H        -1.7313139029       -2.9229215245       -3.0734357626
 H        -0.7646299893       -1.7465634076       -2.3793117212
 H        -0.0072135526       -0.1438863300       -4.5644266921
 H        -0.9192448841        0.8904211257       -3.5374793900
 H        -1.3943857914        0.8322838297       -5.2007570186
 H         2.8090786840       -2.4806829757       -7.8293216984
 H         2.9799612173       -4.2087523527       -7.8890563625
 H         2.5654491948       -3.4721686951       -6.2966671845
 H        -0.2138596806       -4.1302590039       -9.5257837160
 H         1.5373211098       -4.0580246385       -9.7877173692
 H         0.5928305733       -2.6172279319       -9.6450132492
 H        -3.1147647259       -8.1466976389       -2.3719098476
 H        -2.0939902651       -6.7005438266       -2.0439852693
 H        -1.4349046642       -8.2810530348       -2.3573207365
 H        -2.1197441553       -9.6255320508       -4.3415790845
 H        -0.6504964252       -8.8316570230       -5.0293396767
 H        -2.2938280298       -8.7964016980       -5.8801865003
 H        -9.0261344836       -3.5831390725       -5.8566983455
 H        -7.4542314580       -3.6543625032       -4.8788126192
 H        -8.6280540855       -4.9140360506       -4.7541408330
 H        -7.6289728473       -7.0546326769       -7.5139866188
 H        -9.1422532764       -6.2577346561       -7.0519201636
 H        -8.0644531339       -7.0312134316       -5.7357696497
 H        -7.0601384867       -5.0313658835      -11.0807900884
 H        -6.8506954819       -5.0370570064      -12.6930634423
 H        -7.9497734706       -3.8215850957      -11.9020848676
 H        -3.5364088579       -3.9889590698      -11.3955174711
 H        -4.4278318179       -4.5861481613      -12.9116528353
 H        -4.6138983317       -5.5354308492      -11.4736340140
 H        -1.7440438375        1.3277586198      -15.4588210354
 H        -3.4361065800        1.6814419101      -14.8254775797
 H        -2.7831452743        2.4783719587      -16.3037873478
 H        -5.6931553312       -0.0520121209      -17.2348033065
 H        -5.1305551024        1.3052501738      -17.9020483792
 H        -5.4666486811        1.2362003724      -16.1765672295
 H        -2.4287267423       -2.0388612024      -22.1640859326
 H        -2.4378400105       -1.7078755378      -20.5366243888
 H        -1.2461170280       -2.7680944939      -20.9758202549
 H         0.5644005035       -1.9762617892      -22.7950094951
 H         1.0751411006       -1.9707184823      -21.1052100275
 H         1.3657922720       -0.5731382910      -22.2240311796
 H        -1.6827295634        3.0639621994      -27.2154135468
 H        -0.5079080092        1.8772947700      -27.3290616665
 H        -0.2576968086        3.4878711160      -27.8956683643
 H         1.6136958603        4.2852127578      -26.7560992408
 H         2.0117602037        2.6101540511      -26.6587812486
 H         2.1240338931        3.7078287579      -25.2710975164
 H        -1.7276184793        6.8149317587      -19.8080296314
 H        -2.1641307161        5.5622692888      -20.9106520940
 H        -1.7097239461        7.2564385320      -21.3916233490
 H         1.7176369677        7.6241113112      -20.4969189389
 H         0.3061445472        7.8403171841      -19.6042337059
 H         0.3244163411        8.4778756586      -21.3017264045
 Na       -3.9064714262       -3.8731247694       -3.7167246344
 Na        0.5276439525        2.8474807883      -21.5806507342
