232

 C         0.7133332900        5.5427784762      -18.4184636556
 C         0.0954515628        5.2761039687      -19.7627448643
 O        -0.0729899983        4.1017554496      -20.0757186810
 C        -0.0259365487        6.3996340138      -20.9066350808
 C         0.3381787576        5.7804886141      -22.2498335694
 O         1.0692226920        4.7866061219      -22.4192172413
 C        -0.1794268890        6.4911749947      -23.5623015023
 C         0.4035764898        5.7215440540      -24.8302722722
 C        -0.5328016798        4.5288845705      -25.0743766426
 O        -1.5951393352        4.5589145797      -24.5321020919
 C        -0.1576002438        3.1716212961      -25.9649406204
 C        -0.3324993680        1.9552784708      -25.0185353065
 O         0.5558748409        1.6089172157      -24.2330032196
 C        -1.6651337501        1.1754672015      -25.0541071012
 C        -1.9363025663        0.1492324793      -23.9589637642
 C        -1.3546187746        0.5319097280      -22.5020145531
 O        -1.3579702076        1.6557732537      -22.0800199345
 C        -0.7875321516       -0.7406543503      -21.6291108090
 C        -0.3472125853       -0.1263091551      -20.1928601297
 O         0.4455202348        0.7795558399      -20.1136272363
 C        -0.6813743900       -0.9513449629      -18.9687183858
 C        -1.2447141533       -0.0163567187      -17.8408641770
 C        -2.8181706578        0.0490176077      -17.8745022769
 O        -3.4743360530       -0.2650229908      -18.8621598810
 C        -3.6094116123        0.4621388455      -16.5746276454
 C        -3.5163074524       -0.7414818152      -15.4922812131
 O        -2.3677685828       -1.1721699937      -15.2186354186
 C        -4.7067353184       -1.2886542136      -14.8245504720
 C        -4.3244391005       -2.2859361444      -13.7379262858
 C        -5.4613717128       -2.2755286476      -12.6944109845
 O        -6.3289734696       -1.4156787576      -12.6865745598
 C        -5.6472658997       -3.4445466986      -11.6042323325
 C        -5.3960601187       -2.8792175042      -10.1087521898
 O        -4.4007748974       -2.8277021269       -9.4346931975
 C        -6.6338144769       -2.3781808359       -9.4464719047
 C        -6.8383576990       -2.9267281095       -7.9806772765
 C        -7.2566052213       -4.4185491122       -7.9042539677
 O        -7.4849380888       -5.0486752144       -8.9172704676
 C        -7.4062661027       -5.0910046510       -6.4679744589
 C        -5.9347395490       -5.2916101164       -6.0649590545
 O        -5.4047209534       -4.5169893629       -5.3048050761
 C        -4.9735651079       -6.3731583765       -6.7311625601
 C        -3.4592979432       -6.5350684646       -6.2190512785
 C        -3.3503563286       -6.9005518364       -4.7115774304
 O        -4.2417184043       -6.8251742726       -3.9376487544
 C        -1.9238153126       -7.3090059598       -4.3131651662
 C        -0.9146982362       -6.0684427835       -4.6659604338
 O        -1.3033540449       -4.9723064333       -4.4080465385
 C         0.5804622875       -6.3687227075       -5.1387701716
 C         1.2579429884       -5.1164409923       -5.6045113358
 C         0.7847388927       -4.7117566644       -6.9690084274
 O        -0.0783603139       -5.3665438409       -7.4994620037
 C         1.3414993561       -3.3715984553       -7.6115976268
 C         0.2531968820       -2.4620973741       -6.9846051550
 O         0.5918659399       -2.0343148880       -5.8912452959
 C        -1.0575304547       -2.2379079633       -7.6473272361
 C        -1.9141648447       -1.2485477596       -6.8835953612
 C        -2.3574434902       -1.8668439564       -5.4617779000
 O        -3.0968022729       -2.8249526900       -5.3461177096
 C        -2.0132698588       -0.9795512465       -4.1276891447
 C        -3.4662571966       -0.7255399862       -3.6331852343
 O        -4.2228074963       -1.6475266478       -3.3334933085
 C        -3.9681527400        0.7205123177       -3.1141356561
 C        -4.4903631458        0.6522647939       -1.7109959511
 C        -3.3917425750        0.8133150774       -0.6705861734
 O        -2.2486282706        1.0785823345       -1.0113191437
 C        -3.7405699005        0.3810832293        0.8308144545
 C        -3.9608021577       -1.1532052219        0.7717191815
 O        -5.0860723123       -1.6843858366        0.6986420956
 C        -2.7139011631       -2.1733407235        0.8374846369
 C        -3.0808851038       -3.6820292904        0.8434645857
 C        -3.8438737822       -4.0443500999       -0.4340609147
 O        -3.2242859266       -3.7972697469       -1.4401503892
 C        -5.2519143492       -4.8430329148       -0.4648145661
 C        -6.2259728545       -3.9076393381       -1.3254793604
 O        -5.9130348815       -3.7425623920       -2.4401308823
 C        -7.4063587576       -3.1312351905       -0.6780752391
 C        -8.5485754493       -2.6394910104       -1.6124521000
 C        -9.2248895246       -1.3072886835       -1.0654557843
 O        -8.5678060208       -0.6278431076       -0.3044503474
 C       -10.8026968841       -1.1247484627       -1.3818373729
 C       -11.0812660461       -1.1264781914       -2.9394895158
 O       -10.2073884902       -0.8926051931       -3.7341101421
 C       -12.5102846207       -1.5437683985       -3.2405667943
 C       -11.6068626694       -2.1140329396       -0.4945265296
 C       -11.1516492887        0.3653849413       -1.1739886669
 C        -4.8670650324       -6.1523316844       -1.1093997521
 C        -5.6455774155       -5.1831372795        1.0280208596
 C        -2.6077935669        0.7686605481        1.7908492602
 C        -5.0461205707        1.1444977094        1.1974883833
 C        -1.3411547692       -1.8675092194       -3.1022433956
 C        -1.0836988276        0.2354403090       -4.3761418933
 C         2.8088243875       -3.0050145451       -7.2252878474
 C         1.1841884722       -3.5370700405       -9.1295380174
 C        -1.7317187614       -7.5294799995       -2.8257923232
 C        -1.5838405249       -8.6640853977       -5.0020567057
 C        -8.1042052444       -4.2630265308       -5.3960384879
 C        -8.0812388148       -6.4314103128       -6.6228948551
 C        -6.9946353506       -3.9896026887      -11.8744719170
 C        -4.6426277646       -4.5825284658      -11.8040055842
 C        -2.7622177845        1.6044486418      -15.8910195545
 C        -4.9906599990        0.9387586297      -16.8035394629
 C        -1.9087810503       -1.7630215979      -21.5982854543
 C         0.5110639909       -1.4073141814      -22.2410146972
 C        -1.0042435152        3.3323238413      -27.2925910857
 C         1.3599960738        3.1021016541      -26.3038999937
 C        -1.4527233170        6.9872033115      -20.6326924113
 C         0.9838367339        7.6458420861      -20.5730356634
 H         0.8410180122        4.6028705887      -17.8359031441
 H         0.1465500043        6.2895357644      -17.9108073999
 H         1.6767764630        6.0193000643      -18.6106596995
 H         0.1701541329        7.5078375788      -23.5947101171
 H        -1.2747714428        6.5786235101      -23.6127625113
 H         1.4150820062        5.4056335413      -24.6924505462
 H         0.3526994575        6.5774297311      -25.5914481947
 H        -1.7588096679        0.6621814359      -26.0908446968
 H        -2.3598452635        1.9081715085      -25.0658427132
 H        -1.5208532413       -0.8209502981      -24.1313861512
 H        -3.0006359409       -0.0334526105      -23.8481400276
 H         0.2252855857       -1.4794246501      -18.6390889111
 H        -1.3337089113       -1.7928404891      -19.3338139064
 H        -0.8163288827        0.9458656867      -18.0309682692
 H        -0.7900345120       -0.3889184274      -16.9692266139
 H        -5.2343247111       -1.8688835352      -15.6566851090
 H        -5.2606682355       -0.4360179396      -14.4038993014
 H        -3.3713255911       -1.9773134223      -13.1986176660
 H        -4.1807510650       -3.3454721328      -14.1692868021
 H        -7.4722565718       -2.6612786070       -9.9907024098
 H        -6.5278517946       -1.3323771482       -9.3733651113
 H        -7.7285947352       -2.2817614687       -7.5834480139
 H        -5.9247885119       -2.7214004442       -7.4235985217
 H        -4.7716051089       -5.9792044812       -7.7121568624
 H        -5.4875193834       -7.2940210554       -6.6707941580
 H        -2.9178605762       -5.6254802012       -6.3826667044
 H        -3.1245866894       -7.2726937918       -6.8579202830
 H         0.6041596900       -7.0073155569       -6.0034660677
 H         1.2249001744       -7.0131515950       -4.5107863918
 H         2.3753526758       -5.2233986071       -5.5933417512
 H         1.0107597596       -4.2439480975       -4.9453555449
 H        -1.5165359937       -3.2338257823       -7.7111111636
 H        -0.8925215802       -1.8971687537       -8.7158512974
 H        -2.9332293258       -1.3398778758       -7.3158748413
 H        -1.6345797049       -0.2102781933       -6.8537943999
 H        -4.7266196002        1.1111545111       -3.8310878414
 H        -3.1690148173        1.5035340800       -3.1108352266
 H        -5.0450565844       -0.3741950543       -1.5329713333
 H        -5.3099975690        1.3696945090       -1.6387371562
 H        -2.1331911599       -1.8925525604        1.6895114053
 H        -1.9434990014       -1.8761948422        0.0338485697
 H        -3.6164229177       -3.8016580485        1.8052003317
 H        -2.1281684334       -4.2343013212        0.9517021735
 H        -7.0063219199       -2.3186077566       -0.1619283805
 H        -7.8946175670       -3.8279189445        0.1057915444
 H        -9.4002995479       -3.3887137348       -1.8320458258
 H        -8.2145221675       -2.4852861521       -2.6941249097
 H       -13.1795282753       -1.4478281597       -2.3947463178
 H       -12.3843049087       -2.6330776956       -3.3015893041
 H       -12.9299910028       -1.1958447904       -4.1860681585
 H       -11.8462250454       -3.0590588492       -0.9837156748
 H       -12.6357813053       -1.6901054709       -0.3591482637
 H       -11.2126418441       -2.2983467014        0.4532211044
 H       -11.1904884355        0.5368469722       -0.0985254916
 H       -12.0697165375        0.6208316378       -1.7182008012
 H       -10.4053877945        1.0124897906       -1.5888090614
 H        -5.6532999372       -6.8698379015       -0.9292067587
 H        -3.9125140039       -6.4938458382       -0.7602845301
 H        -4.8284489561       -5.9758153186       -2.1384098553
 H        -6.6128737661       -5.7406966630        1.0889323853
 H        -5.8109658947       -4.2986096945        1.5306473516
 H        -4.8469715976       -5.8938337681        1.4003038126
 H        -2.8079579037        0.6170127693        2.8326709305
 H        -2.5209126750        1.8631533900        1.8261999496
 H        -1.6359331269        0.2281465834        1.7305871364
 H        -5.3361518297        0.9143596004        2.1780580554
 H        -5.8843506213        0.8834526694        0.6051053786
 H        -4.7391586712        2.1971583985        1.3669158925
 H        -0.2671296549       -1.9565164752       -3.3883008781
 H        -1.6673375105       -2.9121536769       -3.1796777338
 H        -1.5396407827       -1.6176435029       -2.0427733847
 H        -0.0200780016       -0.0469679542       -4.6194392969
 H        -1.0002536133        0.8515137107       -3.4643717422
 H        -1.4392575475        0.7666434151       -5.2760435208
 H         3.1426917222       -2.1638095433       -7.7852293240
 H         3.4428508385       -3.8954404270       -7.3973359325
 H         2.7797905961       -2.7583202893       -6.1275332087
 H         0.1012039540       -3.6736776710       -9.2350658449
 H         1.7556715527       -4.4089605595       -9.4143539121
 H         1.4476915760       -2.6504082078       -9.7150450252
 H        -2.4002107663       -8.3444266420       -2.4716019871
 H        -2.0875567033       -6.6842106417       -2.1871040604
 H        -0.7080206271       -7.6376426880       -2.5089948673
 H        -1.8291862245       -9.4926862174       -4.3152840628
 H        -0.5003651779       -8.7720224181       -5.0055787898
 H        -1.9175958973       -8.8660654876       -5.9969450876
 H        -9.1358952033       -4.3366618910       -5.6252617550
 H        -7.7359286186       -3.2901973108       -5.4564898984
 H        -7.9371722131       -4.6517012436       -4.3964331473
 H        -7.6106135375       -6.9404250423       -7.4795574791
 H        -9.1255910541       -6.1782851799       -6.7978503319
 H        -8.1528276984       -7.1292181772       -5.7673494960
 H        -7.4666795543       -4.5282232367      -11.0314566222
 H        -7.0527630791       -4.6048685386      -12.6958017708
 H        -7.7065381962       -3.2085676798      -12.1614365409
 H        -3.6877578204       -4.1235977951      -11.7478616715
 H        -4.8430731552       -5.1525746515      -12.7817404262
 H        -4.5666716364       -5.3624270786      -10.9903314079
 H        -1.8654089677        1.1291937839      -15.3540357316
 H        -3.2488311685        2.0164266805      -15.0454140624
 H        -2.4556622476        2.3387701463      -16.5962933450
 H        -5.5623278947        0.3437903302      -17.4410261841
 H        -5.0708309041        1.9815458161      -16.9909603020
 H        -5.6610981920        1.0404703764      -15.9407674672
 H        -2.0608164488       -2.1317205030      -22.6613575750
 H        -2.8236334821       -1.4096631047      -21.1692568272
 H        -1.7883931479       -2.7482847168      -21.2178026781
 H         0.3269231213       -1.6998414073      -23.2414280574
 H         0.9157479908       -2.2981379040      -21.7082636599
 H         1.2140754832       -0.6359153073      -22.3256050984
 H        -2.0143118433        3.4725198052      -27.2192549079
 H        -0.9348500904        2.4530207951      -27.7718787809
 H        -0.6224700699        4.0788331467      -27.9566841824
 H         1.5878030165        3.8429326546      -27.0571810609
 H         1.7031873872        2.0725002062      -26.5710385144
 H         2.0439612696        3.3420741655      -25.4682392993
 H        -1.5858042866        7.4008643392      -19.6290357138
 H        -2.1554947375        6.1074098422      -20.7022867813
 H        -1.8140360759        7.6362466498      -21.3877094783
 H         1.8626906098        7.1662627014      -20.6117745472
 H         0.7001550209        7.9030336573      -19.6083249635
 H         0.7442470388        8.4773424793      -21.2561190713
 Na       -3.7717678467       -4.2652430456       -3.5852341265
 Na        0.6113973262        2.6478432069      -21.6627421332
