232

 C         0.5529379196        5.6135892677      -18.3507137597
 C         0.2326064656        5.1987127823      -19.8318133576
 O        -0.1736282789        4.0822195492      -20.0641559511
 C         0.0606032795        6.3568396533      -20.8568316957
 C         0.2879124375        5.8523415918      -22.3640501498
 O         0.9108095687        4.7949457430      -22.5166120979
 C        -0.0750896878        6.5927551289      -23.6783704963
 C         0.4492405206        5.6971985244      -24.8296614115
 C        -0.5388417050        4.4349430163      -24.9575269327
 O        -1.6411666009        4.4390109362      -24.4659031079
 C        -0.0892213986        3.2662190639      -25.9631243012
 C        -0.4063456712        2.0234080852      -25.1084817050
 O         0.4411763619        1.6324033693      -24.3375774980
 C        -1.8489684346        1.2622484951      -25.0886359929
 C        -1.9081373873        0.2203947513      -23.9843137208
 C        -1.4019475151        0.4898024026      -22.5831991042
 O        -1.4734408007        1.5648875947      -21.9905084070
 C        -0.9253624360       -0.6570445587      -21.7470890919
 C        -0.3999103502       -0.2046047838      -20.2810775439
 O         0.4306943111        0.6780864117      -20.2544814421
 C        -0.7798250300       -0.8830140508      -18.9589610303
 C        -1.3472075194        0.0613463577      -17.7676659251
 C        -2.8297846812        0.0083702425      -17.8330311855
 O        -3.4217853719       -0.3684837331      -18.8415810451
 C        -3.5236725765        0.5043886151      -16.4963473632
 C        -3.3428939476       -0.7579431109      -15.5121458327
 O        -2.2288782462       -1.0698738843      -15.1466776667
 C        -4.6733441299       -1.2304423737      -14.7978136733
 C        -4.4330267641       -2.2672534812      -13.6338946761
 C        -5.5640156697       -2.2495261390      -12.5279137605
 O        -6.3566682133       -1.3418359232      -12.5303847407
 C        -5.6420816156       -3.4627142766      -11.6040807412
 C        -5.4464687138       -2.8762790420      -10.1738058127
 O        -4.2858693417       -2.8233579421       -9.7417195806
 C        -6.7624027774       -2.3659543095       -9.4257086289
 C        -6.8239425434       -2.8651484618       -7.9425715562
 C        -7.1789246272       -4.3517784612       -7.9391007577
 O        -7.3637074868       -5.0270197188       -8.8848823463
 C        -7.3470837944       -5.1733179352       -6.5165031932
 C        -5.7734607426       -5.3649801659       -5.9655879953
 O        -5.5082717569       -4.4927594158       -5.1783147131
 C        -4.9399029179       -6.4254987709       -6.7383102106
 C        -3.4803742896       -6.5398061337       -6.3151479255
 C        -3.2708440967       -6.8869026729       -4.8113816304
 O        -4.1788404164       -6.8549743252       -4.0484970779
 C        -1.7629767454       -7.3365131532       -4.3269577619
 C        -0.9082104625       -6.0656298368       -4.6341425672
 O        -1.2023576850       -4.9409816030       -4.2923532855
 C         0.4769063582       -6.3477742889       -5.2416236016
 C         1.3806516374       -5.0832675815       -5.5706830968
 C         0.9286179585       -4.6944600860       -6.9653447433
 O        -0.0477432036       -5.2602877735       -7.4261172613
 C         1.4121822623       -3.4519532062       -7.6666702153
 C         0.3766784551       -2.3396362845       -6.9585450379
 O         0.4523134868       -1.9120054280       -5.8554930212
 C        -1.0479180410       -2.2853506714       -7.6415545562
 C        -1.9322884348       -1.2778362775       -6.8829335687
 C        -2.3588942703       -1.7437884808       -5.5204415464
 O        -2.9518118638       -2.8003056179       -5.4360500617
 C        -2.0586125404       -0.9148714342       -4.1683960234
 C        -3.4577558610       -0.6983946894       -3.5207195070
 O        -4.1866396451       -1.6614351537       -3.3496654396
 C        -4.0693225275        0.7144831740       -3.1801530407
 C        -4.5487512114        0.6345509474       -1.7302647059
 C        -3.3746885269        0.7124477542       -0.6884179700
 O        -2.2901036691        1.1268231384       -0.9646384322
 C        -3.7122983853        0.3016722788        0.7914760949
 C        -3.9158799871       -1.2212954625        0.8440681895
 O        -5.0270169648       -1.7011733043        0.7772203298
 C        -2.6917889915       -2.1784511446        0.8484251040
 C        -3.1427370231       -3.6107375028        0.9403069955
 C        -3.8405995269       -4.0601190472       -0.3855813559
 O        -3.2164381049       -3.9449492684       -1.4398064759
 C        -5.1453518143       -4.8202038938       -0.3768638080
 C        -6.2090678812       -3.9728839678       -1.2350527645
 O        -5.9645856438       -3.7767629618       -2.4057332634
 C        -7.4646998194       -3.2791898211       -0.5342322080
 C        -8.5777051108       -2.7245229956       -1.4716449492
 C        -9.2238906193       -1.4067681483       -0.9802046584
 O        -8.7011949906       -0.6190010489       -0.2323043870
 C       -10.7593180411       -0.9390916176       -1.4007816858
 C       -10.9627078999       -1.2143665567       -2.9368003024
 O       -10.1339568669       -0.9560865741       -3.7439586049
 C       -12.4804588658       -1.4742474575       -3.3221182973
 C       -11.6272493941       -1.9676638055       -0.6561158857
 C       -11.2172184258        0.4885645269       -1.0076792621
 C        -4.9230489869       -6.2142547982       -1.0632968388
 C        -5.6657834607       -5.2306834960        1.0693330043
 C        -2.6375283840        0.7335463379        1.7726230107
 C        -5.1203045568        0.9165505702        1.1590824818
 C        -1.3159477685       -1.8809073673       -3.1622198078
 C        -1.2847842496        0.4007806243       -4.2351621406
 C         2.8968839802       -3.1595257838       -7.1608657620
 C         1.3087451740       -3.4968815336       -9.2268538502
 C        -1.7856080582       -7.5516647442       -2.7570247014
 C        -1.3185563257       -8.6382234317       -5.0521412160
 C        -8.0921345066       -4.2518836189       -5.4676770236
 C        -8.2236897823       -6.4635878694       -6.6940681483
 C        -7.0275503462       -4.1060250229      -11.8322112540
 C        -4.5581095746       -4.6663698930      -11.7853058925
 C        -2.7808311590        1.6584178844      -15.8742074876
 C        -4.9720903761        0.9396397005      -16.7938478459
 C        -2.0608730563       -1.7806655566      -21.7687312993
 C         0.4115304399       -1.2010180834      -22.3550511888
 C        -0.9979134020        3.2724092838      -27.1928937405
 C         1.3697491713        3.2439347622      -26.3769444589
 C        -1.3938245897        6.9622545945      -20.6345120613
 C         1.0424328298        7.4916332828      -20.6914200747
 H         0.4731757768        4.7413771442      -17.6863876107
 H        -0.2312488742        6.3858460716      -18.1010957648
 H         1.5253817021        6.1127695266      -18.2002387688
 H         0.3237900413        7.6598730314      -23.6644180122
 H        -1.1176288231        6.6770200453      -23.7272057634
 H         1.4228915141        5.3738943696      -24.6376536636
 H         0.4659480192        6.3437868475      -25.6805492297
 H        -2.0326732632        0.7058122008      -26.0280308845
 H        -2.6394527549        2.0104576375      -25.0158555113
 H        -1.4574177332       -0.7647846512      -24.2303091909
 H        -2.9899029237       -0.0096809255      -23.8088969251
 H         0.1337191941       -1.4440826585      -18.6151350450
 H        -1.4674532159       -1.7200034310      -19.2348333181
 H        -0.9035760203        0.9959230397      -17.6779866218
 H        -1.0801964460       -0.5122722423      -16.9110265296
 H        -5.4930395028       -1.6063736251      -15.5245362365
 H        -4.9159140144       -0.2220284591      -14.3377125372
 H        -3.3894267765       -2.0521200205      -13.2128942676
 H        -4.4106692751       -3.2608124583      -14.0402709713
 H        -7.6386025880       -2.6730603035      -10.0243066570
 H        -6.7217911165       -1.3454148540       -9.3480997049
 H        -7.6204300024       -2.3138592449       -7.4201004136
 H        -5.8673496664       -2.5733042606       -7.5278216548
 H        -4.9899814757       -6.1975115741       -7.7794759894
 H        -5.5024208148       -7.3254649823       -6.4162062853
 H        -3.0199401188       -5.5767174183       -6.4418722797
 H        -3.0558351591       -7.2536722257       -7.0170047932
 H         0.5926842671       -7.1098659232       -6.0550143861
 H         1.0341335902       -6.8872024809       -4.4750795999
 H         2.4207688447       -5.3978471591       -5.6189701035
 H         1.2925254670       -4.2736115344       -4.7429674075
 H        -1.2377853288       -3.3471662160       -7.7630315943
 H        -1.0196008789       -1.8372130753       -8.6372157083
 H        -2.8097828078       -1.1030767897       -7.3110233257
 H        -1.3776421212       -0.3750540533       -6.8238135670
 H        -4.9683492612        0.8914175448       -3.8553326961
 H        -3.4333117192        1.6170156159       -3.3083434053
 H        -5.2011200105       -0.2833122147       -1.5705935852
 H        -5.2593079101        1.4308344812       -1.6750056911
 H        -1.9107926020       -1.8678834594        1.5253836530
 H        -2.1231012663       -1.9546219363       -0.0796419764
 H        -3.7165044189       -3.6232876806        1.9031144844
 H        -2.2082032847       -4.1670782757        1.1176221322
 H        -6.8839228209       -2.4229681191       -0.0955189891
 H        -7.9653157188       -3.8004429309        0.3240516749
 H        -9.3488829595       -3.4698109170       -1.8129309375
 H        -8.2171006865       -2.4333024082       -2.4852937054
 H       -13.0270845850       -1.0971005089       -2.5405103441
 H       -12.7617437575       -2.4855735330       -3.3586351843
 H       -12.7296185119       -1.0095190940       -4.3327875526
 H       -11.8344117607       -2.8453461759       -1.2896055654
 H       -12.5527394964       -1.6253953212       -0.3477117746
 H       -11.1389969745       -2.3329085231        0.2933312847
 H       -11.4098834216        0.5886294032        0.0083961240
 H       -12.0718032076        0.5756872177       -1.5957634172
 H       -10.5534586492        1.2915799137       -1.3699317248
 H        -5.7925530734       -6.7305617261       -0.8604077300
 H        -3.9817452238       -6.6804324496       -0.7839080341
 H        -4.9178572077       -6.0875471204       -2.1535193009
 H        -6.3868906661       -6.0291085005        1.1164548637
 H        -6.1425744740       -4.3230764760        1.4771806985
 H        -4.7602852587       -5.5078304954        1.6017658261
 H        -2.8336153793        0.3641913588        2.7583948982
 H        -2.6053351425        1.7966292203        1.9873414244
 H        -1.6412107190        0.2628489799        1.6341110382
 H        -5.2972760111        1.0107138508        2.2478181118
 H        -5.9509149842        0.3442928449        0.7335025690
 H        -5.0196933819        1.9972023939        0.9277931883
 H        -0.3053636117       -2.1054390600       -3.5622548987
 H        -1.7423583373       -2.8680661756       -3.1444789797
 H        -1.3371263838       -1.5245216054       -2.1884766321
 H        -0.1946996094        0.2563918256       -4.4423054280
 H        -1.3491242355        0.8386153871       -3.2438443456
 H        -1.6309936793        1.0445743485       -5.0741841726
 H         3.4379899795       -2.5531086973       -7.8839615083
 H         3.3736263106       -4.1527247514       -7.0392756516
 H         2.8634073662       -2.6389609185       -6.1795819476
 H         0.3397360606       -3.9389393282       -9.4303312056
 H         2.1302850968       -4.0484886703       -9.6330454618
 H         1.2806718501       -2.4817619414       -9.5617697798
 H        -2.1462351196       -8.4926507243       -2.3721811250
 H        -2.3606492267       -6.8387308987       -2.1817994593
 H        -0.7355353307       -7.3050372956       -2.4161518021
 H        -2.0986947544       -9.4075554652       -4.8534015430
 H        -0.3837252915       -9.1797193875       -4.8272770474
 H        -1.2898210395       -8.4373974441       -6.1339332588
 H        -9.0984220635       -4.5258443036       -5.4979513783
 H        -7.9441424008       -3.2141319986       -5.6862062004
 H        -7.6973028180       -4.4754602214       -4.4251258878
 H        -7.6338400430       -7.3202676340       -7.1365146220
 H        -9.1227119727       -6.1952718885       -7.2322568391
 H        -8.6739953601       -6.8278923700       -5.7178547981
 H        -7.3120680443       -4.5796207272      -10.8865842878
 H        -7.1880466818       -4.8118877999      -12.7055675036
 H        -7.8056486980       -3.4350472515      -12.0888961862
 H        -3.5879189329       -4.5062598787      -11.2143170914
 H        -4.4003585145       -4.8241557544      -12.9247965036
 H        -4.9206327289       -5.5921508564      -11.4100919180
 H        -1.8458887468        1.4026806712      -15.4938821524
 H        -3.2873241159        2.0299366877      -14.9844727126
 H        -2.7244290287        2.4950901602      -16.6521353550
 H        -5.5677018775        0.1209388105      -17.2174889275
 H        -5.0567951084        1.9248902909      -17.2650180298
 H        -5.5883328368        1.2863243160      -16.0012398702
 H        -2.3692013954       -2.1477404177      -22.7073277102
 H        -2.8999865310       -1.4959932883      -21.1512171442
 H        -1.7817512582       -2.6978925689      -21.4169360022
 H         0.3993651749       -1.3324349740      -23.4107510419
 H         0.7448894609       -2.1278044586      -21.8888360182
 H         1.1461401245       -0.3993629048      -22.1594033342
 H        -2.0126524798        3.4515634846      -26.9451389863
 H        -1.0655227881        2.3233663642      -27.6782181817
 H        -0.6779589162        3.9439148353      -27.9388654705
 H         1.5127981931        3.8808267050      -27.2268463636
 H         1.6905573960        2.1813685476      -26.5512032864
 H         2.1003565495        3.5065197948      -25.5911280189
 H        -1.5083533742        7.5747427651      -19.7803335843
 H        -2.0815813585        6.0771853748      -20.5198570485
 H        -1.8217745533        7.3970859711      -21.5721849322
 H         1.8654952711        7.0953971181      -21.2863609271
 H         1.2233817626        7.7407291747      -19.6615734782
 H         0.4829021522        8.2451182994      -21.0843946059
 Na       -3.7732524784       -4.2239176452       -3.7081693238
 Na        0.7109922719        2.5871291958      -21.6061511894
