232

 C        -0.1212170284        5.7697039253      -18.5229004326
 C         0.1836944601        5.1303855491      -19.8885380657
 O         0.3247499002        3.9377881539      -20.0653579133
 C         0.1760357602        6.1655466707      -21.1591381920
 C         0.3829607827        5.6660251419      -22.6163388842
 O         0.6392191882        4.5316756982      -22.8965248891
 C         0.2190340765        6.6855799034      -23.7951220667
 C         0.2331591977        5.8863954866      -25.1168379003
 C        -0.6300240988        4.6764841136      -25.0474503501
 O        -1.7263658850        4.7760468235      -24.5376887976
 C        -0.3683170369        3.4141523684      -25.8959358316
 C        -0.7043200731        2.1587111122      -24.9948949328
 O         0.0917941205        1.7041074046      -24.1928554292
 C        -2.1217361748        1.6564206462      -24.9893587491
 C        -2.3280679014        0.4943620201      -24.0088937656
 C        -1.7701014824        0.6171969528      -22.4228616804
 O        -1.9937017424        1.6115977323      -21.8098754463
 C        -1.1438959543       -0.7259599363      -21.8303253240
 C        -0.6273860329       -0.3586711041      -20.4068764744
 O         0.1963910097        0.5565877806      -20.3733283919
 C        -0.9543903819       -1.2322234799      -19.2154593061
 C        -1.4151812330       -0.3252668378      -17.9601507784
 C        -2.9538689689       -0.1855533313      -17.7364793685
 O        -3.7954502636       -0.7480216480      -18.4146288480
 C        -3.5081278247        0.5627256072      -16.5273586399
 C        -3.3347254420       -0.3583171628      -15.2506985667
 O        -2.2038498906       -0.7706035844      -15.0358305821
 C        -4.4523851867       -0.6991969551      -14.3376217093
 C        -4.3549526639       -2.0075378887      -13.6342058892
 C        -5.5433606717       -2.1856754104      -12.6183727844
 O        -6.3677064722       -1.3173985387      -12.3964963659
 C        -5.6095853254       -3.5363199921      -11.7117258432
 C        -5.4835648868       -3.0354843197      -10.2182478958
 O        -4.3555528145       -3.0578108388       -9.7498418174
 C        -6.7755751305       -2.5065238434       -9.5213046052
 C        -6.7460634887       -3.0337092520       -8.0373043666
 C        -6.8687348067       -4.4784191350       -7.9618416780
 O        -6.6056110924       -5.2789081535       -8.9064423180
 C        -7.2025928514       -5.0957005871       -6.6706878023
 C        -5.7556791623       -5.3248183312       -6.0248334898
 O        -5.3385663257       -4.6841903932       -5.0956670176
 C        -4.8364786769       -6.3471481904       -6.7359266344
 C        -3.4221594700       -6.3258215776       -6.2139218576
 C        -3.2083229800       -6.9734892822       -4.8256511884
 O        -4.1759913017       -7.1596700836       -4.0411174231
 C        -1.8043266420       -7.3341333597       -4.4041661690
 C        -0.8568113055       -6.0296096859       -4.6282307882
 O        -1.3315939013       -4.9173765829       -4.2781714546
 C         0.5745329461       -6.2661263063       -4.8747770307
 C         1.3647512893       -4.9473742836       -5.2100056661
 C         1.0268447133       -4.5027806843       -6.7316374481
 O         0.2633848861       -5.2372470783       -7.3400947498
 C         1.5958225956       -3.1548112423       -7.3745661624
 C         0.6120271950       -1.9946565620       -6.9012716210
 O         0.8595874519       -1.2135391086       -5.9843289522
 C        -0.7118752702       -1.7480373323       -7.7562067989
 C        -1.7877703617       -0.9165737241       -6.9348545413
 C        -2.2273992952       -1.4335574577       -5.5197325722
 O        -2.5641832252       -2.5966576162       -5.4986079894
 C        -2.1739570828       -0.6290100245       -4.1813857785
 C        -3.5841349738       -0.8198283017       -3.4943495756
 O        -4.0351425943       -1.8805552028       -3.1810724464
 C        -4.4662311612        0.4422230112       -3.1636772200
 C        -4.8900498813        0.3503459426       -1.7241999902
 C        -3.7497198477        0.3994380929       -0.7872363193
 O        -2.5958281221        0.5286311023       -1.1806520435
 C        -4.0171173150        0.1538303460        0.7310130175
 C        -4.0805257519       -1.3727416867        0.7498749377
 O        -5.1801973084       -1.9273774943        0.7689997711
 C        -2.8120686125       -2.2830995800        0.8766180274
 C        -3.1339985450       -3.7955003136        0.8954953356
 C        -3.9213940400       -4.3702299821       -0.2969161728
 O        -3.3323472916       -4.4606314613       -1.3333266423
 C        -5.4219888417       -4.9640357357       -0.0422464942
 C        -6.2337470029       -4.0218537853       -1.0092780757
 O        -5.8103660304       -3.7589584970       -2.1100073892
 C        -7.4622981664       -3.5080767853       -0.3259897570
 C        -8.5616487925       -2.9437808690       -1.1949961782
 C        -9.2282559581       -1.5363982893       -0.6789957520
 O        -8.5705845167       -0.8621665467        0.1242169402
 C       -10.5208928535       -1.1317984068       -1.3276721335
 C       -10.5082037726       -1.2395812537       -2.8444769113
 O        -9.4755733889       -1.4115828809       -3.4750173911
 C       -11.5647625460       -0.6920307016       -3.7499909621
 C       -11.5548657027       -2.0616017112       -0.7138264729
 C       -10.9532793525        0.3057666714       -0.9293139169
 C        -5.4470828919       -6.3682784908       -0.6041646489
 C        -5.7785642471       -4.8868748795        1.4604266127
 C        -2.7518248841        0.5970991057        1.4974810168
 C        -5.2501831303        0.7781567430        1.3505781605
 C        -1.2168129566       -1.3199722459       -3.1905128257
 C        -1.6661926882        0.7811775394       -4.3926497458
 C         3.0978157404       -2.9492839525       -7.1235505182
 C         1.4227505844       -3.4069582167       -8.9685628906
 C        -1.6453993359       -7.8521753982       -3.0024102811
 C        -1.3481799570       -8.4094919372       -5.4028091089
 C        -7.9995244565       -4.2161089862       -5.6932381198
 C        -7.8763631514       -6.4814825264       -6.8910518779
 C        -6.9941606505       -4.0539140107      -12.1057844316
 C        -4.5066131658       -4.4955641707      -11.9869201383
 C        -2.5519218696        1.7395506559      -16.1365669043
 C        -4.9025378886        1.0103771008      -16.7050543402
 C        -2.1508355192       -1.8123184770      -21.9252753130
 C         0.0883997927       -1.1189116490      -22.6150135048
 C        -1.2187123751        3.4832545352      -27.2070376273
 C         1.1749585953        3.4070143617      -26.1872665513
 C        -1.1600051604        6.9372354852      -21.0988867976
 C         1.4669011056        6.9913229856      -20.7367935045
 H        -0.9392625353        5.3243264178      -17.9378409370
 H        -0.4788874311        6.7851020547      -18.7258244647
 H         0.8127478675        5.7823919620      -17.9420145570
 H         1.0514800767        7.3678693171      -23.7103589759
 H        -0.7773899403        7.1528808999      -23.7101685666
 H         1.2423927377        5.6358724001      -25.3422717318
 H        -0.0740704158        6.4604160847      -25.9008980299
 H        -2.4478631646        1.4042886344      -25.9543416938
 H        -2.6729628176        2.6563684091      -24.6834110507
 H        -1.7578676933       -0.3914789026      -24.3114524278
 H        -3.3920896640        0.2551126524      -23.8677184731
 H         0.0965309297       -1.6405568621      -19.0498192284
 H        -1.5097750982       -2.1160025743      -19.4845204414
 H        -1.0625217310        0.6626688866      -18.1767642650
 H        -0.7816602461       -0.6122730915      -17.1761874160
 H        -5.4659459987       -0.5335677046      -14.7048941861
 H        -4.4919618201        0.0867897860      -13.4970084032
 H        -3.4387521183       -2.1263440948      -13.0538928363
 H        -4.4008851563       -2.8652358069      -14.3327644296
 H        -7.6871943140       -2.8728705632       -9.9361261878
 H        -6.8325393744       -1.3845097245       -9.7785934705
 H        -7.4581827173       -2.6114128079       -7.4213145653
 H        -5.8206580468       -2.7619790371       -7.4665000194
 H        -4.9143776026       -5.9852843557       -7.7925032590
 H        -5.2724921386       -7.3448082839       -6.6912522795
 H        -3.0553520419       -5.3131032675       -6.1920824434
 H        -2.6890690592       -6.8108093635       -6.8934053401
 H         0.6610314933       -6.8237722074       -5.8313019852
 H         0.9292256611       -6.8838000947       -4.0514983193
 H         2.4673182728       -5.0997643169       -5.0238173343
 H         0.9709746914       -4.1565455326       -4.5424981764
 H        -1.1015401159       -2.6453428300       -8.2542468519
 H        -0.3662130834       -1.0900561817       -8.5415971733
 H        -2.6501787891       -0.7501809069       -7.5362047985
 H        -1.3511506024        0.0007804746       -6.6591471563
 H        -5.2454588452        0.4048840482       -3.9749777596
 H        -3.8393775989        1.3395996440       -3.3880911950
 H        -5.1487653230       -0.6460468844       -1.6950656327
 H        -5.8000869342        0.8556795460       -1.3177932818
 H        -2.1578869440       -1.8450939850        1.6754832178
 H        -2.1457514693       -2.0503059515        0.0842946501
 H        -3.6722033247       -3.9182136058        1.8284092145
 H        -2.1241918531       -4.2675616358        0.9022223934
 H        -7.1898579788       -2.6092754021        0.4127137757
 H        -7.7838916309       -4.3379246694        0.2703391934
 H        -9.3483898366       -3.6564020833       -1.5159864885
 H        -8.0564666824       -2.6616498906       -2.1856528194
 H       -11.6190130599        0.3876808612       -3.4715762888
 H       -12.5627232429       -1.0895503871       -3.6975112544
 H       -11.2028634431       -0.8193167341       -4.6899053589
 H       -11.1816362294       -3.0562269758       -0.7286324871
 H       -12.6010763501       -1.9257914167       -1.1020905549
 H       -11.5711560543       -1.7841711019        0.3261794000
 H       -10.7444421675        0.3710153945        0.1325687394
 H       -12.0112492445        0.4481760397       -1.0365171837
 H       -10.3873115089        0.9674276410       -1.4662062698
 H        -6.4879737152       -6.6696048718       -0.3930509138
 H        -4.8158214060       -7.0739523868       -0.1025704748
 H        -5.2244091955       -6.3585028615       -1.6322351899
 H        -6.6438945726       -5.5329652744        1.5875605349
 H        -5.8807487091       -3.8991825263        1.9098858936
 H        -4.9571822781       -5.3248761199        1.9676771866
 H        -2.8990671016        0.2728373066        2.5882375800
 H        -2.4986760595        1.6666315218        1.5369753025
 H        -1.7959295388        0.1801108298        1.2717952710
 H        -5.4344505631        0.2184287735        2.2929509865
 H        -6.1550047489        0.7712813640        0.6826726381
 H        -5.0467210468        1.8170555738        1.4839155175
 H        -0.2097890034       -1.1158556700       -3.4368174868
 H        -1.2848527404       -2.3993096074       -3.2470377013
 H        -1.3546009568       -0.8677006246       -2.1723525733
 H        -0.7656662585        0.7529210368       -5.0044347989
 H        -1.5097127341        1.2376974730       -3.3742568929
 H        -2.4924000938        1.4218707731       -4.7822760101
 H         3.4889670464       -2.0368979844       -7.6653856849
 H         3.5622019124       -3.8528588014       -7.5093932283
 H         3.1984574140       -2.8922047316       -6.0523682832
 H         0.4314423607       -3.4728616998       -9.3219375270
 H         1.8345054635       -4.3895380763       -9.0798236036
 H         2.1015653847       -2.7252220422       -9.4079036900
 H        -2.5629825625       -8.1605359453       -2.4541959393
 H        -1.1472748975       -7.0818021280       -2.3454635551
 H        -0.9942133591       -8.7311017469       -3.0253372067
 H        -1.9767882796       -9.2610357788       -5.2365079213
 H        -0.3503815160       -8.7803020417       -5.2029566561
 H        -1.3748745330       -8.3225021962       -6.5172392958
 H        -8.5760799231       -3.3899500083       -6.1809168065
 H        -7.2032903557       -3.7209482347       -5.1285724476
 H        -8.5840003829       -4.7624230957       -5.0587927333
 H        -7.7853734248       -6.9031308664       -7.9010723827
 H        -9.0119575085       -6.2890317543       -6.8454134052
 H        -7.6540106363       -7.2561963989       -6.1475632921
 H        -7.5621046836       -4.4751046233      -11.2781076068
 H        -7.1566811945       -4.7152188973      -12.9564784722
 H        -7.6689981925       -3.1643598087      -12.3180288411
 H        -3.7559875922       -4.1785848673      -12.7103281471
 H        -4.8553692360       -5.3416047864      -12.5335122073
 H        -4.0459841368       -4.8810468903      -11.0184927246
 H        -1.6402701261        1.3166031006      -15.6395407137
 H        -3.0272274324        2.5267280450      -15.5712941957
 H        -2.1783240315        2.2892344459      -16.9556108269
 H        -5.5717491223        0.1960460098      -17.0914099764
 H        -5.0983901200        1.8447446250      -17.4260507702
 H        -5.3880644583        1.1882335361      -15.6982267864
 H        -2.4324777014       -1.9591263484      -22.9424048769
 H        -3.0573758685       -1.6378317650      -21.4852535055
 H        -1.8189588752       -2.7718521185      -21.4771317620
 H        -0.2902200473       -1.5794332511      -23.5409725565
 H         0.6494528300       -1.8489132499      -22.1159081509
 H         0.7532592158       -0.3082342515      -22.8474887408
 H        -2.1591063514        3.8914747971      -27.0105106155
 H        -1.3380029318        2.5548014353      -27.6567161813
 H        -0.7425044461        4.0538946371      -27.9840980840
 H         1.5470349545        3.9760118145      -27.1213609267
 H         1.3818448659        2.3885377862      -26.4019010192
 H         1.6895921207        3.6133793755      -25.2387051719
 H        -1.5439217540        6.8857107210      -20.0618734723
 H        -1.8479842921        6.5654092582      -21.7923991468
 H        -1.0990819344        8.0298154392      -21.2746982807
 H         1.9495413397        6.2923099111      -20.1253011176
 H         1.1549351677        7.8924370570      -20.2548122784
 H         2.0619805408        7.0439316963      -21.6897219846
 Na       -3.5400122367       -4.2648472459       -3.6623703517
 Na        0.2253366273        2.4418120684      -21.9087754718
