232

 C        -0.1747914535        5.5065092575      -18.6089634735
 C         0.0933628338        5.1236911370      -19.9883823744
 O         0.3668626758        3.9398731459      -20.1732929205
 C         0.2596142865        6.1897381486      -21.1583265668
 C         0.4119015945        5.6596585180      -22.5909384040
 O         0.6755587563        4.5247293542      -22.9885191505
 C         0.2417458411        6.7025201156      -23.7813653505
 C         0.2992395304        5.9582690776      -25.1533930570
 C        -0.7460914685        4.8165176644      -25.1079435204
 O        -1.8356361369        4.9290313988      -24.6255713201
 C        -0.3444395317        3.3308429589      -25.8959625964
 C        -0.8402400402        2.2252999966      -24.9807946869
 O        -0.0074960632        1.7378485452      -24.2029000070
 C        -2.3171665219        1.6693639169      -24.8516851960
 C        -2.3712681065        0.4457205785      -23.9772825205
 C        -1.9673666141        0.6413079675      -22.5385178868
 O        -2.2147097144        1.5932872995      -21.8511499302
 C        -1.2966666911       -0.6787814906      -21.9044311773
 C        -0.6258011765       -0.4124769428      -20.3626699393
 O         0.1642667560        0.5017418798      -20.2126949401
 C        -0.9421360459       -1.3225272642      -19.1580841473
 C        -1.5226249443       -0.4030312144      -18.1058618644
 C        -3.0205447859       -0.2874492518      -17.8404708522
 O        -3.9026798182       -0.8837030675      -18.4204325209
 C        -3.4164778718        0.6241951343      -16.5153265952
 C        -3.2931724942       -0.3433296626      -15.2601116908
 O        -2.1232046701       -0.7724286369      -15.0679964266
 C        -4.4444407664       -0.6318343912      -14.3451547694
 C        -4.3694919645       -1.9113288775      -13.5640635791
 C        -5.4422612750       -2.0960236289      -12.5622041950
 O        -6.3750531956       -1.3005904865      -12.4901083187
 C        -5.6285183076       -3.4755003744      -11.8055419467
 C        -5.4802015581       -3.0250509912      -10.2806270911
 O        -4.4918278028       -3.2218648379       -9.6433021902
 C        -6.6429927935       -2.4105126812       -9.6276386823
 C        -6.7872810145       -2.9241231080       -8.1684293801
 C        -6.8529574298       -4.5180773877       -7.9946385251
 O        -6.4747043430       -5.2004538379       -8.9040304368
 C        -7.1364973662       -5.1659929630       -6.5340376900
 C        -5.7708325615       -5.2858234701       -6.0225346853
 O        -5.3965018371       -4.6161951106       -5.0978746280
 C        -4.7856241369       -6.3458804903       -6.7289427027
 C        -3.4309285175       -6.2762989481       -6.1283460622
 C        -3.3211716412       -7.0186380793       -4.7845833744
 O        -4.1844854799       -7.1410724293       -4.0034872535
 C        -1.7293455595       -7.4153650822       -4.4686328696
 C        -0.8555219670       -6.0446206208       -4.5325761879
 O        -1.3553315281       -4.9860998671       -4.3363944516
 C         0.6475587222       -6.1819041059       -4.9795289779
 C         1.2854530152       -4.7330548024       -5.2058011748
 C         1.0368797921       -4.4179732869       -6.6147486636
 O         0.3751547348       -5.1736928395       -7.2919273869
 C         1.6001806847       -3.1709492285       -7.3764440746
 C         0.6058412360       -1.8601978496       -6.8754407935
 O         0.9601244347       -1.1960143704       -5.9514534653
 C        -0.7482094804       -1.7472822026       -7.5191886112
 C        -1.7437395172       -0.8289952483       -6.9807983118
 C        -2.1604371179       -1.4236519432       -5.4978746225
 O        -2.6148224484       -2.5654699136       -5.4468076620
 C        -2.1529043048       -0.5513698758       -4.1727055112
 C        -3.5783597024       -0.8136247708       -3.5757925067
 O        -3.9322544005       -1.9367425171       -3.2322251451
 C        -4.5313902261        0.3238700392       -3.1607197741
 C        -4.9877572792        0.1917878897       -1.7356399239
 C        -3.7686356384        0.3140794101       -0.8441739692
 O        -2.6364275060        0.4371567139       -1.2218414569
 C        -4.0252479982        0.0868096061        0.8035355918
 C        -4.1571132347       -1.4805136448        0.7907685633
 O        -5.2780711423       -1.9707444429        0.7591541572
 C        -2.8788615863       -2.3435612185        0.7625496607
 C        -3.0690052025       -3.8557319584        0.9619643712
 C        -3.7714572348       -4.4745697591       -0.1834689973
 O        -3.2886009033       -4.5316744327       -1.2909534078
 C        -5.2632895876       -5.0167682537        0.0125096815
 C        -6.1603738794       -4.0095705117       -0.9491489327
 O        -5.8823695044       -3.7013018746       -2.0643082797
 C        -7.5119616116       -3.5719818646       -0.2769079854
 C        -8.4973377076       -2.8906589794       -1.2155618999
 C        -9.0898498773       -1.5127635940       -0.6884390839
 O        -8.5870212119       -0.8758574500        0.1889134960
 C       -10.4916028802       -1.1314284657       -1.2959365702
 C       -10.3463812188       -1.0387464389       -2.9980401633
 O        -9.3600237383       -1.5509078352       -3.4394202888
 C       -11.5527447214       -0.5355062489       -3.9062781183
 C       -11.6343271487       -2.1906366503       -0.7820200365
 C       -10.8446774204        0.3114919508       -0.8262678292
 C        -5.3766794421       -6.4665847283       -0.5145154119
 C        -5.7587236928       -4.9418589137        1.4932271832
 C        -2.7329180147        0.6055545200        1.4562159311
 C        -5.2711063417        0.7579052315        1.3161019776
 C        -1.1262642902       -1.2781929420       -3.2152848882
 C        -1.7199061789        0.9441900652       -4.3385711663
 C         3.0279608277       -2.8891439536       -7.0415438764
 C         1.4044198982       -3.5089105672       -8.9221244291
 C        -1.5793158628       -7.8458653087       -3.0022123917
 C        -1.2178405574       -8.4856114150       -5.4158345010
 C        -7.9989548414       -4.2686897522       -5.6378431268
 C        -7.8095868882       -6.5954999994       -6.7935267932
 C        -6.9582067225       -4.1027882606      -12.0650227159
 C        -4.4677849819       -4.5064037436      -12.1175350335
 C        -2.4339192074        1.9028639570      -16.2353528422
 C        -4.8231806110        1.1252904845      -16.7373408531
 C        -2.2516684937       -1.8647745277      -21.8557755195
 C         0.0611448961       -1.1273600786      -22.5920737015
 C        -1.1441611323        3.4312590173      -27.1675798332
 C         1.2151555335        3.2866916635      -26.2917059000
 C        -1.1103657100        7.0587872247      -21.0658326800
 C         1.5392145918        7.1033164140      -20.7378875829
 H        -1.1328970194        5.0765400990      -18.1676157269
 H        -0.3158082593        6.5590518336      -18.4571070091
 H         0.7441122558        5.1055279751      -18.1207816268
 H         1.1213739544        7.2785744375      -23.6705039667
 H        -0.7380530655        7.2847422798      -23.7984594999
 H         1.2629930404        5.5937800470      -25.3754436160
 H         0.1089275193        6.7138920813      -25.9635750980
 H        -2.6473812991        1.4097939133      -25.9710515518
 H        -2.9271642075        2.4799568479      -24.4701687716
 H        -1.7358241009       -0.4253000424      -24.2636821306
 H        -3.4184676661        0.0934905011      -23.7806482361
 H        -0.0749791231       -1.8650679963      -18.8151832633
 H        -1.6584531934       -2.0729372539      -19.4755612514
 H        -1.0561802168        0.6250778844      -18.1102716513
 H        -0.9853427281       -0.8215177317      -17.2374399971
 H        -5.4185820646       -0.5456094327      -14.8390427830
 H        -4.6034805421        0.2039579640      -13.6471957669
 H        -3.4815079531       -2.0710178087      -13.0696361592
 H        -4.4880412142       -2.7648292467      -14.2602502187
 H        -7.6558943526       -2.4307449961      -10.2055397655
 H        -6.4123131822       -1.2763744923       -9.6734766630
 H        -7.5085303338       -2.3418180370       -7.6046717659
 H        -5.9108484417       -2.6179521156       -7.6623845366
 H        -4.6784662044       -5.9641385114       -7.8050901500
 H        -5.2606928146       -7.3433813014       -6.7768959604
 H        -3.0834851132       -5.1845517456       -6.0579612395
 H        -2.6161183026       -6.6597747084       -6.7804669937
 H         0.7691046742       -6.6766627908       -5.9298658522
 H         1.1947609375       -6.7223338216       -4.1652829010
 H         2.3588353946       -4.7839377736       -4.9249406949
 H         0.7675206252       -4.0186692720       -4.6116312096
 H        -1.1312631910       -2.7269622594       -7.3053480233
 H        -0.7175792601       -1.6905633896       -8.6056126374
 H        -2.6427509699       -1.0612015763       -7.6553743250
 H        -1.5517714744        0.3157768902       -6.8831456379
 H        -5.2716026212        0.2793405308       -3.9511121126
 H        -4.0344371398        1.2867121975       -3.2440903573
 H        -5.6076376040       -0.7014781293       -1.5466502175
 H        -5.6086025246        0.9840913682       -1.4346702979
 H        -2.2241086947       -1.8693922174        1.4722169172
 H        -2.3214846859       -2.0585719079       -0.1385855709
 H        -3.6354363427       -3.9081387083        1.8571440566
 H        -2.0619212409       -4.2593442630        1.0542217455
 H        -7.3429724166       -2.9077788073        0.5697372568
 H        -8.0308844644       -4.5011079071        0.1127310582
 H        -9.3669302440       -3.5108734027       -1.3197332878
 H        -8.1806387271       -2.7387933863       -2.2122137058
 H       -11.6951463792        0.5105714412       -3.9127153217
 H       -12.3839756630       -0.9304948808       -3.3492928376
 H       -11.5507303178       -0.9935064816       -4.9498085199
 H       -11.5075420195       -3.2268830998       -1.1383835672
 H       -12.6226146932       -1.6942647080       -0.9943176510
 H       -11.5383167475       -2.2131340248        0.2752254688
 H       -10.7016928804        0.3921646595        0.2175494509
 H       -11.8623793368        0.5380332760       -1.0260256476
 H       -10.1561067270        0.9264183756       -1.3327817267
 H        -6.3987496486       -6.8666718925       -0.2895653309
 H        -4.7165149084       -7.1452834024        0.0607110025
 H        -5.1177750865       -6.4794183782       -1.5645184511
 H        -6.7719675952       -5.3724213042        1.4513183746
 H        -5.7438200268       -3.9659012254        1.7916979202
 H        -5.1549742452       -5.5098484123        2.2689006207
 H        -2.6687092094        0.4215189561        2.5082625240
 H        -2.5875787950        1.6727518313        1.3277657975
 H        -1.7663078547        0.2775616030        1.0609942011
 H        -5.4653553546        0.2218327382        2.2349393189
 H        -6.1174023280        0.6125382162        0.6251203416
 H        -5.2116715673        1.8987333892        1.3855038663
 H        -0.0928173010       -1.0370894155       -3.4087086410
 H        -1.2535333983       -2.3207329264       -3.2624212196
 H        -1.2743398074       -0.8718556470       -2.2499089019
 H        -0.7955903793        0.9124566871       -4.9448335313
 H        -1.5760067912        1.4435809470       -3.3815873461
 H        -2.5520680493        1.5004698495       -4.7480494606
 H         3.4959140819       -2.1454871935       -7.6607974553
 H         3.5285601395       -3.8700560997       -7.1281738396
 H         2.9429447092       -2.6160776747       -5.9669428744
 H         0.3795651067       -3.7353042609       -9.0834880415
 H         1.9428770497       -4.3846325182       -9.1288335861
 H         1.8280710776       -2.6887806888       -9.4350238498
 H        -2.5916276990       -8.1969107654       -2.6690382051
 H        -1.2510085847       -7.0819147434       -2.2452202330
 H        -1.0088265196       -8.7441450678       -2.9401719207
 H        -2.0110880337       -9.2387365082       -5.6684137352
 H        -0.3732267750       -9.0631711717       -4.9922699110
 H        -0.8807122475       -8.2267203154       -6.4023168120
 H        -8.7853501835       -3.8750606475       -6.3137679530
 H        -7.4374373419       -3.4075107551       -5.2713090975
 H        -8.4652261135       -4.8491559521       -4.7744083969
 H        -7.7446685081       -6.8688695641       -7.8665937308
 H        -8.9049820051       -6.5298963762       -6.6929091751
 H        -7.4633837733       -7.4426279925       -6.1656634598
 H        -7.4468122511       -4.5807780539      -11.1288028443
 H        -6.9414610056       -4.8899926054      -12.7792731041
 H        -7.8185424984       -3.4411041545      -12.4118538476
 H        -3.7783613446       -4.2497712475      -12.8373212202
 H        -4.7624395506       -5.4926027677      -12.5199442653
 H        -3.9865303255       -4.7137460815      -11.1250663405
 H        -1.4377272287        1.5791957572      -15.7740738721
 H        -2.9202862089        2.6734147416      -15.6601293654
 H        -2.1402821585        2.4631219186      -17.0832975977
 H        -5.5886038654        0.3400888681      -16.8836607745
 H        -4.9429289244        1.6622045620      -17.7075865440
 H        -5.2813024847        1.6540596329      -15.8076673719
 H        -2.5718831473       -2.0851211013      -22.9041323880
 H        -3.2365751263       -1.8505658040      -21.4102882283
 H        -1.7100257189       -2.6450915245      -21.4393506956
 H        -0.0964094862       -1.3677997782      -23.6423897639
 H         0.4703019805       -2.0756224808      -22.1263172881
 H         0.8214190134       -0.3919213562      -22.4844173185
 H        -2.1606514142        3.7899612024      -26.8851797109
 H        -1.1938657472        2.5216664306      -27.7824369483
 H        -0.7244905956        4.2159747953      -27.8927163934
 H         1.4654914964        3.8391869738      -27.1794620986
 H         1.3938496547        2.2162589776      -26.5662165719
 H         1.7935094955        3.5622288957      -25.3904209334
 H        -1.4913445298        7.0792786334      -20.0246390476
 H        -1.8815427882        6.5337764139      -21.7037438463
 H        -1.0832915774        8.0807895218      -21.3448618545
 H         2.0310325975        6.4514230818      -19.9947530169
 H         1.1093315781        8.0467529192      -20.3072303884
 H         2.1646597938        7.0759303234      -21.6681753664
 Na       -3.6571375475       -4.2652026833       -3.6942182130
 Na        0.2211919682        2.5992722970      -21.8485269890
