232

 C        -0.4138147080        5.6614289108      -18.5151088794
 C         0.0670391020        5.2487581949      -19.9055539371
 O         0.4763986623        4.0922660505      -20.0205265772
 C         0.3024368783        6.2340844214      -21.2004749427
 C         0.3606317375        5.5189792564      -22.6470909532
 O         0.5160203948        4.3230715542      -22.8253378310
 C         0.1849944354        6.4781028142      -23.8272394848
 C         0.3473371934        5.8059223104      -25.2729686535
 C        -0.8300910084        4.8598788427      -25.5740361534
 O        -1.9439184604        5.1599397965      -25.2058497632
 C        -0.6953520199        3.3174067311      -26.1443361375
 C        -1.0998325762        2.3797838346      -24.8998714419
 O        -0.2146840022        1.9342849475      -24.1947561008
 C        -2.6475786874        2.1158576004      -24.6124159921
 C        -2.8717986042        0.6734274662      -24.0418324566
 C        -2.3411458563        0.6584230707      -22.5387193118
 O        -2.3947694130        1.6179596837      -21.7999651324
 C        -1.8469905999       -0.6825704932      -22.0028901457
 C        -1.2686314407       -0.4848189354      -20.5839454604
 O        -0.6154399696        0.5183311271      -20.3269894043
 C        -1.5016427397       -1.5980770410      -19.4376396261
 C        -1.5327194335       -0.9366582980      -18.0929142653
 C        -2.9740611249       -0.2922200005      -17.8130442536
 O        -3.8843576546       -0.6870473081      -18.5278852251
 C        -3.3204162978        0.6311103139      -16.5768784626
 C        -3.2226259256       -0.1043926098      -15.1602903779
 O        -2.0877315665       -0.3906567056      -14.7988547213
 C        -4.4996631773       -0.5568111207      -14.4476858230
 C        -4.1015555356       -1.5567312404      -13.3716769032
 C        -5.3145975997       -1.9626337531      -12.6354486750
 O        -6.2591144785       -1.1948796351      -12.4952136612
 C        -5.3082617319       -3.3531197159      -11.8928322336
 C        -5.3678617714       -3.1037480063      -10.4356368897
 O        -4.4178338482       -3.3586344127       -9.7293886736
 C        -6.5987795411       -2.4895441442       -9.7949113350
 C        -6.6984050121       -2.9932890564       -8.3569690753
 C        -6.9573930820       -4.4286478210       -8.2146986052
 O        -6.9230762256       -5.0300295682       -9.2968908014
 C        -7.1397013156       -5.1226140349       -6.7960901627
 C        -5.7135541653       -5.2539311299       -6.1620554481
 O        -5.4168992621       -4.4581961965       -5.3502445447
 C        -4.6472697688       -6.3637440509       -6.6603729411
 C        -3.3075415136       -6.1366118346       -6.0559806678
 C        -3.0312234775       -6.7028799234       -4.6820943242
 O        -3.9361821369       -6.9819800661       -3.8575429308
 C        -1.5692582733       -6.9948805472       -4.2817848520
 C        -0.7480748101       -5.7059393801       -4.0745054862
 O        -1.2450493474       -4.6552742621       -3.6367272533
 C         0.6924128987       -5.6830287541       -4.3174292461
 C         1.2144679099       -4.3984691813       -4.9437815827
 C         1.0124125735       -4.2528422506       -6.4584903044
 O         0.3640173236       -5.0830015147       -7.0613940498
 C         1.7020572819       -3.0958532062       -7.1329356122
 C         0.6963844715       -1.9090116208       -6.7957615105
 O         0.9276202044       -1.1681472927       -5.8677645533
 C        -0.6548916286       -1.8101784578       -7.4888208059
 C        -1.8284340207       -1.0197767093       -6.8453938607
 C        -2.4246189238       -1.5658573124       -5.4788804885
 O        -2.8067756003       -2.7280425929       -5.3207357008
 C        -2.3594114376       -0.6275125628       -4.2258844077
 C        -3.6384774794       -0.9937884414       -3.1888872138
 O        -3.6201119397       -2.0863824247       -2.6816431954
 C        -4.8333742205        0.0133881262       -3.1453690933
 C        -5.2671323836        0.2182976528       -1.6790908878
 C        -4.0292244223        0.2342386695       -0.7561377169
 O        -2.8981759628        0.4370877509       -1.1568175791
 C        -4.2453799437       -0.1331060638        0.7738594042
 C        -4.1320711198       -1.7150771498        1.0272656564
 O        -5.1348773148       -2.3803757791        1.3047820495
 C        -2.8103820497       -2.5164360387        0.7378798378
 C        -2.9883901395       -4.0365320057        1.1125146179
 C        -3.5598653409       -4.6962931381       -0.0775419615
 O        -2.9236048165       -4.9403084900       -1.0741763958
 C        -5.0566003128       -5.3359156265       -0.0145704553
 C        -5.9233360515       -4.3503482866       -0.9521113929
 O        -5.6496290220       -4.0537666307       -2.0609819923
 C        -7.2204756312       -3.7376213766       -0.3903949658
 C        -8.2544417872       -3.2533686304       -1.4423069093
 C        -8.8306390201       -1.9360014965       -0.8444836905
 O        -8.3155214271       -1.2857838949        0.0463495777
 C       -10.0740584281       -1.2486306533       -1.5272423443
 C        -9.8875685843       -0.9815947800       -3.0001474306
 O        -8.9720671162       -1.3468481106       -3.7037126512
 C       -10.7757748882        0.0784662514       -3.6367516631
 C       -11.3512567465       -2.2161316966       -1.4347099865
 C       -10.4747187167        0.0960026036       -0.7894503132
 C        -4.9867749171       -6.7312623541       -0.6885354108
 C        -5.5851020288       -5.3445192066        1.3819963469
 C        -3.1712929873        0.6894022090        1.5280587139
 C        -5.6122481333        0.3161700160        1.3221693895
 C        -1.0484699705       -1.1141415744       -3.4521330497
 C        -2.1762739544        0.8667999192       -4.5610873722
 C         3.1890596773       -2.6116200887       -6.7692635917
 C         1.5985165986       -3.4316067512       -8.6352820747
 C        -1.4778056849       -7.7398403487       -2.9480590445
 C        -1.0731831066       -7.8660711047       -5.3918190386
 C        -7.9790701882       -4.1238479088       -5.9180102169
 C        -7.7345248134       -6.5466967254       -6.8651139358
 C        -6.6535581920       -4.2361724398      -12.2787912258
 C        -4.0847788309       -4.1980486276      -12.2512342605
 C        -2.1241537559        1.7389210373      -16.4968582218
 C        -4.7450089107        1.2482889128      -16.7381434694
 C        -2.8612778456       -1.8613317985      -22.2546125934
 C        -0.4964248467       -0.9327565596      -22.7503757990
 C        -1.6161608588        3.3017070371      -27.3525107983
 C         0.7489966591        2.9725643589      -26.4989976149
 C        -0.7677352596        7.2922199298      -21.0922953051
 C         1.7619413105        6.8377796271      -21.0057684532
 H        -1.1762303267        6.4593630339      -18.5133240001
 H         0.4395388191        5.9930992127      -17.8708716794
 H        -0.8079109843        4.7390194518      -18.0379743239
 H         0.9412267287        7.2946796581      -23.6835462205
 H        -0.8548856641        6.7484384974      -23.7166003303
 H         1.3098128264        5.1670120289      -25.2991703062
 H         0.4688124782        6.5859100157      -26.1044365874
 H        -3.2061917354        2.2929877647      -25.4872569816
 H        -2.9644579222        2.8811970499      -23.9189088237
 H        -2.3761776458       -0.1438884956      -24.5786432877
 H        -3.9534962799        0.4672471243      -24.0028550218
 H        -0.7831947133       -2.4257342477      -19.4959276086
 H        -2.4877846740       -1.9999487171      -19.5278602976
 H        -0.7045453010       -0.2040002513      -17.8551563035
 H        -1.3984012176       -1.7444094754      -17.2852854137
 H        -5.1743821281       -1.0253252259      -15.1468609027
 H        -5.0568398399        0.2966042759      -14.1392348049
 H        -3.2824712707       -1.1046894599      -12.7559184377
 H        -3.6128643519       -2.4083179790      -13.7985749828
 H        -7.5371684301       -2.6266084131      -10.1926869858
 H        -6.4081592909       -1.4258313405       -9.8197610385
 H        -7.1539539275       -2.2231498208       -7.7310236008
 H        -5.5828717489       -2.9921699003       -7.9778239483
 H        -4.6310532304       -6.3054472742       -7.7479446511
 H        -5.1297366599       -7.3756561981       -6.5458920915
 H        -2.9420737921       -5.0971869175       -6.0775065460
 H        -2.4966768921       -6.5626761585       -6.7314255046
 H         0.9527870566       -6.4757653531       -5.0576341401
 H         1.1364480830       -5.8869946808       -3.3365032200
 H         2.2876075278       -4.3971314228       -4.8769884168
 H         0.8958462973       -3.6099300318       -4.2844157478
 H        -1.0824217415       -2.8492155815       -7.7020533814
 H        -0.4312165269       -1.4060103519       -8.4678154490
 H        -2.7263590499       -0.9938031716       -7.5256201802
 H        -1.6897341289        0.0471374553       -6.6195850575
 H        -5.6121316138       -0.4650304874       -3.6935530952
 H        -4.6007940920        0.8916262505       -3.6896302956
 H        -5.8547977887       -0.6436736018       -1.4400421879
 H        -6.0205079691        1.1087317999       -1.4525333536
 H        -2.1699591409       -2.0349512142        1.5198292414
 H        -2.4042615646       -2.4618823161       -0.2674255663
 H        -3.5683027521       -4.1639713245        2.0221717155
 H        -2.0019818566       -4.3615035418        1.4006004875
 H        -7.0858194034       -2.9248244258        0.3310622485
 H        -7.5472649321       -4.5256688389        0.1248511252
 H        -8.9499662683       -4.0274704525       -1.5968086247
 H        -7.6945571342       -3.0661290438       -2.3190677190
 H       -10.2659721242        1.0808364206       -3.4171845999
 H       -11.8133867154        0.0550636908       -3.2350825005
 H       -10.7445403432        0.0141319997       -4.6896037745
 H       -11.0466875505       -3.1202360060       -1.9178901729
 H       -12.1983129886       -1.8817419606       -2.0821568990
 H       -11.5524739128       -2.3210346524       -0.3763384421
 H       -10.1381377011       -0.0348195927        0.2391847584
 H       -11.5208633191        0.3593535873       -0.9537041230
 H        -9.8584720504        0.8423169919       -1.1598994335
 H        -5.9977370002       -7.2177689482       -0.8398466798
 H        -4.3648359770       -7.3885720706       -0.0352942670
 H        -4.5815092808       -6.6389930301       -1.6995801655
 H        -6.6699122548       -5.6400146934        1.4256667343
 H        -5.6531501572       -4.3517412922        1.8154628984
 H        -5.0947091236       -6.0889449829        1.9988303671
 H        -3.1932684483        0.6214692858        2.6402590232
 H        -3.2281156171        1.7549506290        1.3788462713
 H        -2.1954500250        0.4320365430        1.2355146636
 H        -5.7585256790       -0.1868281738        2.3196625212
 H        -6.4372294338       -0.0634764581        0.6416200624
 H        -5.7560078565        1.3882859332        1.4236287965
 H        -0.2042330400       -0.7577551770       -3.9294917799
 H        -1.0338813222       -2.1690024578       -3.3487296983
 H        -0.9850133167       -0.7359079812       -2.4081507103
 H        -1.1574143148        1.0215634405       -4.8639146526
 H        -2.3688631428        1.5137337287       -3.6845776838
 H        -2.8417301537        1.0872063714       -5.4220686770
 H         3.4794736297       -1.9223379613       -7.6180916052
 H         3.8722653320       -3.4545014932       -6.7173600590
 H         3.1526937665       -2.0400330597       -5.8512720393
 H         0.5781103740       -3.4217285293       -8.9228966002
 H         1.9883445711       -4.4283064313       -8.6132914196
 H         2.2124328751       -2.8033191614       -9.2325761673
 H        -1.6746351247       -8.8011747789       -3.0996608820
 H        -2.1758590568       -7.2354341814       -2.2794377071
 H        -0.4713068894       -7.7150203688       -2.5161364442
 H        -1.8132993524       -8.3734250382       -6.0009204354
 H        -0.5589257789       -8.7366074877       -4.9774590756
 H        -0.3815940280       -7.4181417364       -6.1984263431
 H        -8.6933910802       -3.5802937951       -6.6496954213
 H        -7.3299560324       -3.3432426975       -5.4169494327
 H        -8.5857717890       -4.4747858009       -5.1308868833
 H        -7.5878156950       -7.0111262831       -7.8305260418
 H        -8.8456201656       -6.5549639169       -6.6312317582
 H        -7.3043834063       -7.2521884652       -6.1607802792
 H        -6.9871018636       -5.0076318555      -11.5991507679
 H        -6.5481952760       -4.8293333206      -13.1820750625
 H        -7.5297395918       -3.5348604494      -12.3814253924
 H        -4.3338911656       -4.9105705033      -13.0154302445
 H        -3.7397426322       -4.6329707533      -11.3504201087
 H        -3.1725402554       -3.7836730842      -12.7414387217
 H        -1.1245706200        1.3279553889      -16.1149583383
 H        -2.2792942149        2.4484603347      -15.6950296952
 H        -1.9241991211        2.2452000722      -17.4164617090
 H        -5.4514788579        0.3971288487      -16.9044445141
 H        -4.8504727813        1.8547781995      -17.6556383456
 H        -5.0624866293        1.8896604788      -15.8623920191
 H        -3.0800743319       -2.0633271397      -23.3271032029
 H        -3.8136068589       -1.7130645201      -21.7021153827
 H        -2.3134778142       -2.8645775096      -22.0550477148
 H        -0.5520048186       -1.1193728098      -23.8615484073
 H        -0.0650131916       -1.8114297872      -22.3381466171
 H         0.1330666151       -0.0377418794      -22.5553514506
 H        -2.5709584993        3.9251044060      -27.2722716950
 H        -1.9346285383        2.2228094805      -27.3192730146
 H        -1.0070408830        3.5801301396      -28.3213763394
 H         1.1810124528        3.8773025967      -27.0392971152
 H         0.7163336634        2.0627496058      -27.0260823525
 H         1.2785308415        2.8437980545      -25.5795015742
 H        -0.9016735626        7.6125535095      -20.0439299882
 H        -1.7304491571        6.9242034455      -21.2548285614
 H        -0.4812265114        8.2316750365      -21.6376161633
 H         2.4626033440        6.4739426714      -21.7439595116
 H         2.0494185362        6.5455906821      -19.9779138163
 H         1.5677593722        7.9762799498      -21.1471222638
 Na       -3.7635078334       -4.2380097705       -3.4859776085
 Na        0.1158850908        2.4911712761      -21.5622182473
