232

 C        -0.4353520428        5.8730285944      -18.6104706073
 C         0.1388689299        5.2582026298      -19.9186331081
 O         0.4550750240        4.0805177746      -19.9035538698
 C         0.3129653098        6.1829241739      -21.1427083241
 C         0.2235358856        5.4719048074      -22.5815042025
 O         0.4018475659        4.3048942538      -22.8343625080
 C         0.1729516935        6.4443838277      -23.8779766396
 C         0.3768176692        5.6508719688      -25.1971618569
 C        -0.8678648209        4.7408394644      -25.4880916686
 O        -2.0017081843        5.1228911270      -25.3215310399
 C        -0.7352296965        3.2997895939      -26.1254496460
 C        -1.1281974683        2.4734614816      -24.9094792115
 O        -0.2703610905        1.9545131640      -24.1792899837
 C        -2.5998567608        2.1144051236      -24.6071459686
 C        -2.8989436102        0.8483269568      -23.9531215920
 C        -2.4418059998        0.7590068163      -22.5044939561
 O        -2.4033799380        1.8198603539      -21.9345403147
 C        -1.8499573020       -0.6433905746      -21.9706497809
 C        -1.3289202686       -0.3947861416      -20.5735982469
 O        -0.5123047739        0.4804137308      -20.3377284662
 C        -1.6169544602       -1.4985777093      -19.5247560482
 C        -1.6970136003       -1.0260779112      -18.0968708260
 C        -3.0593629237       -0.3360390842      -17.7998788659
 O        -3.9631097910       -0.5699457383      -18.5352557196
 C        -3.2533346612        0.6737553334      -16.6218158210
 C        -3.2022003853       -0.1262222479      -15.2580546613
 O        -2.1073250151       -0.3867183296      -14.7032051871
 C        -4.4297997916       -0.5861505264      -14.5482149102
 C        -4.0660449285       -1.5315947691      -13.3900365843
 C        -5.3125530297       -2.0185740984      -12.6389334537
 O        -6.2330121192       -1.2147314736      -12.4607841399
 C        -5.3356216752       -3.4168267461      -11.9328896715
 C        -5.3038498819       -3.0892360199      -10.3328352589
 O        -4.3180233228       -3.2835040732       -9.6995690349
 C        -6.5761784733       -2.5508798170       -9.7537549460
 C        -6.5665846255       -2.9389068921       -8.2655042826
 C        -6.8631818774       -4.4811171913       -8.2931247486
 O        -7.0414676402       -5.2283092491       -9.2177804918
 C        -7.1315962207       -5.0472566880       -6.8335517954
 C        -5.7391450995       -5.1468158606       -6.1688127689
 O        -5.2822177770       -4.4419678470       -5.2929722675
 C        -4.7204716335       -6.3136656094       -6.6608092047
 C        -3.3309005810       -6.0326968081       -6.1025945893
 C        -3.1669709642       -6.6026363592       -4.6440298195
 O        -4.0646928188       -6.8185018066       -3.9162900631
 C        -1.5920938123       -6.9299750324       -4.3369762630
 C        -0.6907390121       -5.5808632845       -4.0642102883
 O        -1.2083308522       -4.6133706943       -3.6318947346
 C         0.9659578115       -5.6508460036       -4.1840650679
 C         1.3806029542       -4.3042882086       -4.6956083950
 C         1.1851606559       -4.2384678365       -6.2153520575
 O         0.4122692467       -4.9961557207       -6.7893818149
 C         1.6313363303       -2.9995527039       -7.1668128231
 C         0.5791470014       -1.8865250817       -6.7583748968
 O         0.8956660619       -1.1534246712       -5.8641739736
 C        -0.8333827066       -2.0007539889       -7.4954929806
 C        -1.7737943645       -1.1219444867       -6.7690235269
 C        -2.3740467411       -1.6766846001       -5.4675273117
 O        -2.7761664091       -2.8468225565       -5.3822745369
 C        -2.3598788240       -0.7090950669       -4.2061758265
 C        -3.5630116417       -1.0000370602       -3.3300179917
 O        -3.6976494038       -2.0351336339       -2.6808303454
 C        -4.8037188491       -0.1415317886       -3.1397893665
 C        -5.2091167502        0.0168054452       -1.6592888704
 C        -4.0743463807        0.1730027696       -0.6591580153
 O        -3.0151145920        0.5108421606       -1.1044602281
 C        -4.3020750876       -0.1595851978        0.8566639310
 C        -4.1643848424       -1.7114274343        1.0393863053
 O        -5.1556379557       -2.3050278131        1.4036687679
 C        -2.8255176487       -2.4051431267        0.8402106947
 C        -3.0101763723       -3.9194343647        0.9902402552
 C        -3.5747959631       -4.7380719688       -0.1395066199
 O        -2.8821338916       -4.9602155608       -1.1124173761
 C        -5.0707915180       -5.2762804905       -0.0833931165
 C        -5.9443158501       -4.4529115069       -1.0879755392
 O        -5.5578913016       -4.1844471531       -2.2428220157
 C        -7.1872823692       -3.9064924666       -0.4119373089
 C        -8.1631251324       -3.1667949681       -1.3722888538
 C        -8.7686789681       -1.9279609002       -0.8600225574
 O        -8.1672987341       -1.2826165019       -0.0359209889
 C       -10.0277665332       -1.3125392356       -1.5090329766
 C        -9.6700050582       -0.8477386078       -3.0360089540
 O        -8.8069122077       -1.4929387584       -3.5795623512
 C       -10.6566761147        0.1807374510       -3.6401423436
 C       -11.3854361505       -2.2886798417       -1.5621678773
 C       -10.4516738440        0.0155816692       -0.7565135130
 C        -4.8738203907       -6.6847620189       -0.7249657544
 C        -5.6302968757       -5.4568067696        1.3639993032
 C        -3.1907494800        0.5474327180        1.7073282216
 C        -5.7163993581        0.2364916399        1.3895307120
 C        -0.9953829080       -1.1381515661       -3.5135105875
 C        -2.2844964628        0.7946003062       -4.5243870135
 C         3.0368706342       -2.5537604931       -6.8220095490
 C         1.5807882485       -3.4047912614       -8.7085581287
 C        -1.4579939914       -7.6311049410       -2.8895560038
 C        -1.0714389431       -7.9043050545       -5.4356329971
 C        -7.9526989960       -4.1122316981       -6.0144993549
 C        -7.7968346154       -6.4954430185       -6.9740035426
 C        -6.6230686318       -4.2217218644      -12.3695967845
 C        -4.0365445976       -4.2198149673      -12.2004952829
 C        -2.1227982788        1.7048041018      -16.7229775422
 C        -4.6206106970        1.3124309342      -16.6775119403
 C        -2.8299624313       -1.8104615446      -22.0576544605
 C        -0.6037361703       -0.9817614186      -22.9455381685
 C        -1.7027783354        3.3014726928      -27.3593300895
 C         0.7182524400        2.9989708820      -26.6341954502
 C        -0.7779666249        7.3371111157      -21.0914352037
 C         1.8373714046        6.6795075405      -20.9974612924
 H        -1.2197939020        6.6616681355      -18.5938485693
 H         0.4471776838        6.2963364321      -18.2213490466
 H        -0.6792985219        5.0680311006      -17.9104262080
 H         1.0218923420        7.0702307089      -23.7670817013
 H        -0.8253555279        6.9696679024      -24.0224583684
 H         1.3143116646        5.1835428436      -25.2535377084
 H         0.3374982940        6.4102146715      -26.0239629458
 H        -3.2656351190        2.1122502522      -25.6102518249
 H        -2.9788425505        2.9344956159      -24.0829363851
 H        -2.4254531228        0.0250631204      -24.4727309215
 H        -3.9388441380        0.6978914709      -24.0478454673
 H        -0.6874263468       -2.1418122217      -19.6085203123
 H        -2.4983360205       -2.0941876975      -19.7714110895
 H        -0.9088089964       -0.3284631085      -17.8223484684
 H        -1.5334114260       -1.8770750199      -17.4527537112
 H        -5.1901744126       -1.0698958765      -15.1497891294
 H        -4.8386949423        0.4166582940      -14.2474919219
 H        -3.3151587730       -1.0452018190      -12.7516218102
 H        -3.4509399971       -2.4553332571      -13.7785275224
 H        -7.4772336570       -3.0889879652      -10.0686157849
 H        -6.6394591558       -1.6018146318      -10.1010879999
 H        -7.1343071806       -2.2655983975       -7.5882373456
 H        -5.4781153464       -2.8429765669       -7.8842681234
 H        -4.7912258663       -6.2372450506       -7.7409780841
 H        -5.1543689476       -7.2646944132       -6.5156247380
 H        -3.1281788099       -4.9862120965       -6.1326715685
 H        -2.4735370527       -6.3461813098       -6.6873461423
 H         1.3107489188       -6.4163090975       -4.8414698888
 H         1.2774395417       -5.8268852546       -3.1586608638
 H         2.3588901388       -3.8708140002       -4.3236651057
 H         0.6427847766       -3.6462664267       -4.2284543272
 H        -1.2735299253       -3.0129187021       -7.6814907632
 H        -0.6318788325       -1.5902479007       -8.5430292798
 H        -2.6170307507       -0.9520068885       -7.2870682978
 H        -1.4583545490       -0.1628900152       -6.5428026898
 H        -5.5650446229       -0.5931199826       -3.7935708823
 H        -4.6492013201        0.8721374989       -3.5063632470
 H        -5.9617228062       -0.7330289148       -1.3664764425
 H        -5.7619463928        0.9783466353       -1.5054139141
 H        -2.0870943995       -1.9362713000        1.6032709162
 H        -2.5433812637       -2.2628000606       -0.2040413221
 H        -3.4317460718       -4.1348072177        1.9608203387
 H        -1.9351067886       -4.2305265206        1.2072191072
 H        -6.7713456039       -3.1717504681        0.2965662338
 H        -7.5722876632       -4.7190030758        0.2072958676
 H        -8.8473825614       -3.9548486109       -1.6577101891
 H        -7.5714027501       -2.8389955861       -2.2503771343
 H       -10.6241692243        1.1734568942       -3.2133926524
 H       -11.6148838027       -0.2937874519       -3.4612830162
 H       -10.4658360865        0.3520487654       -4.7752483152
 H       -11.1857047005       -3.1128119406       -2.2383702321
 H       -12.2594647769       -1.7665099622       -2.0721335706
 H       -11.5762828490       -2.5416801563       -0.5740105539
 H        -9.9361547204        0.0146947121        0.2179228023
 H       -11.5270824773        0.3007470358       -0.8365723142
 H        -9.8796354569        0.7956235596       -1.2837084429
 H        -5.9173465867       -7.1403792318       -0.9086176416
 H        -4.3331982157       -7.3086719830        0.0114704280
 H        -4.4124894609       -6.6756297955       -1.7153920223
 H        -6.5608852922       -6.0888247642        1.4593716085
 H        -5.9093371879       -4.6053112475        1.8878412841
 H        -4.8092537304       -6.0683634200        1.8569253202
 H        -3.4112958703        0.3731676082        2.7323160498
 H        -3.1427064669        1.6322643208        1.7129149320
 H        -2.1921950556        0.1192275253        1.5846148671
 H        -6.0968753490       -0.3701696667        2.1841382012
 H        -6.4146341631        0.1504594281        0.5561954242
 H        -5.7154551260        1.3058798601        1.7267100768
 H        -0.2132681818       -0.8284434766       -4.2459236474
 H        -0.9297136596       -2.2092859079       -3.3215417381
 H        -0.7746017206       -0.7053387129       -2.5419183826
 H        -1.3222032249        1.0910651764       -4.9191905151
 H        -2.4585468176        1.2942375884       -3.5826414349
 H        -3.0035400456        1.0243519479       -5.2782176071
 H         3.5711138572       -1.9982936486       -7.5683984444
 H         3.5481956039       -3.4632514911       -6.5510879316
 H         2.8879887728       -1.9908557505       -5.9005824379
 H         0.5316155724       -3.5293197939       -9.0260206095
 H         2.1414592643       -4.3263630171       -8.7091280394
 H         2.0887479743       -2.6469727213       -9.3324512697
 H        -2.0909160934       -8.5507611985       -2.9655773425
 H        -1.6292354287       -7.0196544292       -1.9725844027
 H        -0.4739752709       -7.9975758425       -2.9055441370
 H        -1.9265989690       -8.3193740077       -5.9790732593
 H        -0.6681647403       -8.8422357403       -5.0175915765
 H        -0.4318778772       -7.5769430364       -6.2265941671
 H        -8.6122836914       -3.5086774623       -6.6030855928
 H        -7.2873682874       -3.4793462361       -5.4553972136
 H        -8.6155234529       -4.5406909261       -5.2177656119
 H        -7.9020286117       -6.7216669306       -8.0170383181
 H        -8.7779625437       -6.4552573057       -6.5488493626
 H        -7.3228212707       -7.3463935451       -6.5636877791
 H        -6.9643325612       -4.9456785059      -11.5994241780
 H        -6.5324308560       -4.8097553940      -13.2005961626
 H        -7.4737948313       -3.5457930824      -12.5176542943
 H        -3.8847370902       -4.4513225149      -13.2046795020
 H        -4.0010625507       -5.0808104915      -11.4976859755
 H        -3.1219806319       -3.5963419869      -12.1009763005
 H        -1.1129716499        1.1998041757      -16.8420243502
 H        -1.8352296829        2.2797114159      -15.8385108611
 H        -2.2509069945        2.3025903859      -17.5826611343
 H        -5.2853818097        0.4800535653      -16.5042743754
 H        -4.8733162525        1.8131747939      -17.6012543132
 H        -4.7566373704        2.1144574383      -15.9184094308
 H        -3.0422747371       -1.9984443006      -23.1698580259
 H        -3.7750504663       -1.7604463314      -21.4500154263
 H        -2.2850547105       -2.6971411512      -21.9476699852
 H        -0.8673030093       -1.0047060021      -24.0329193080
 H        -0.2477435945       -2.0292185459      -22.7211526881
 H         0.1418070940       -0.2216371747      -22.8092468523
 H        -2.7686030690        3.5521181171      -27.1553328500
 H        -1.6792802179        2.2320728160      -27.6484068467
 H        -1.2585311325        3.9756475537      -28.1190249270
 H         1.0364528753        3.8471966886      -27.2230104677
 H         0.6408958664        2.0556504209      -27.1293748282
 H         1.3552960085        2.8537935907      -25.7433148715
 H        -0.9340911707        7.7717379516      -20.0892153454
 H        -1.8024217055        6.9418543891      -21.2340816004
 H        -0.5252444594        8.1322747279      -21.7332790830
 H         2.3925569915        6.0722019405      -21.6891738561
 H         2.1698389329        6.4360877566      -19.9950540340
 H         1.8690097102        7.7141991892      -21.2575962885
 Na       -3.7596318156       -4.1939751762       -3.5568765806
 Na       -0.0693963635        2.3817265673      -21.5584561928
