232

 C        -0.3586686833        5.9808796428      -18.6650156020
 C         0.1103537636        5.1752553220      -19.9341793014
 O         0.3755173280        4.0054229949      -19.8772951212
 C         0.2816706643        6.1287775735      -21.2106983105
 C         0.2467648842        5.5074404907      -22.5989711691
 O         0.2088836173        4.3022766768      -22.6757838596
 C         0.1509817072        6.3929155034      -23.8451202045
 C         0.3074257019        5.5192917804      -25.0312007116
 C        -0.9730285706        4.7541471925      -25.4823046609
 O        -2.0628030242        5.2503810736      -25.2904790780
 C        -0.7120267609        3.2704504721      -26.1568979785
 C        -1.1248645683        2.3112065630      -24.9820906226
 O        -0.3145209293        1.9943424877      -24.1064044406
 C        -2.6930532488        2.1719830166      -24.7564308985
 C        -3.0952602909        0.9340333763      -24.0404569545
 C        -2.3945728026        0.8886185704      -22.6193377272
 O        -2.3835837549        1.8807119823      -21.9013370700
 C        -1.8064765055       -0.5345885056      -22.1070884597
 C        -1.2173485174       -0.4412962020      -20.5168435523
 O        -0.4440214733        0.4595109483      -20.2253392735
 C        -1.6305370294       -1.4973657403      -19.4998948602
 C        -1.8119359479       -1.0590702680      -17.9980503690
 C        -3.1838989920       -0.3674340988      -17.8463992818
 O        -4.1473678863       -0.4844040840      -18.5804326549
 C        -3.1940867248        0.6063828867      -16.6354916879
 C        -3.0049658405       -0.1247569497      -15.2600415318
 O        -1.9526251287       -0.3437395452      -14.7424468092
 C        -4.4009538866       -0.6009478167      -14.6101386503
 C        -4.1056649738       -1.5619608897      -13.4858862832
 C        -5.2890130864       -2.0256177005      -12.5646102466
 O        -6.2638016444       -1.3226905628      -12.4223446104
 C        -5.2573087848       -3.4526243119      -11.9395196056
 C        -5.2547436297       -3.0701157339      -10.4119866678
 O        -4.2008688544       -3.1918847970       -9.7706438001
 C        -6.5265054882       -2.5602198918       -9.7639339712
 C        -6.5936731422       -3.1182532686       -8.2893194277
 C        -6.8827057481       -4.5361884484       -8.1463480313
 O        -7.0213000419       -5.1612118982       -9.1720639996
 C        -7.1080909944       -5.0673183005       -6.7426406200
 C        -5.7117480882       -5.1928603373       -6.1137509079
 O        -5.4003867134       -4.3111869433       -5.2998872550
 C        -4.6919261436       -6.2329331892       -6.6443592019
 C        -3.2907331463       -5.9834498495       -6.1943932075
 C        -3.0367637880       -6.5114264232       -4.7013189253
 O        -4.0152747640       -6.6429676836       -4.0045220460
 C        -1.5538819660       -6.9633981437       -4.3325802217
 C        -0.6581299468       -5.6336128362       -4.0649110739
 O        -1.2044626294       -4.6057955703       -3.7397463943
 C         0.8520212116       -5.5473427898       -4.0736944991
 C         1.5207920944       -4.1520944575       -4.6708728271
 C         1.1393397314       -4.1785431341       -6.1098645713
 O         0.4135384637       -5.0996294982       -6.4853588312
 C         1.6576365954       -3.0410202732       -7.1020359381
 C         0.5309568182       -1.9456052710       -6.8433813365
 O         0.7007070883       -1.0898357219       -5.9911907097
 C        -0.8509640855       -2.1241303355       -7.3736517873
 C        -1.8255840659       -1.1052051301       -6.7756230501
 C        -2.3840683807       -1.7077189384       -5.4278960667
 O        -2.6976667228       -2.8500696100       -5.4757222871
 C        -2.3631787879       -0.7946215662       -4.1742098518
 C        -3.5651209315       -1.1475733526       -3.2809169128
 O        -3.5896868485       -2.1646782388       -2.6180857557
 C        -4.8229059604       -0.0626077785       -3.0975986422
 C        -5.3029451814       -0.1071365125       -1.6793600525
 C        -4.1100391002        0.1479931869       -0.6085793989
 O        -3.0171108330        0.5643767612       -0.9776387916
 C        -4.3780713923       -0.1623842004        0.9300000685
 C        -4.2728707910       -1.7156435373        1.0681976160
 O        -5.1938241636       -2.3483284425        1.4877722223
 C        -2.8478030383       -2.3303824127        0.8452222765
 C        -2.8956777126       -3.8691597752        1.0114621032
 C        -3.5346643401       -4.6980802914       -0.2152782643
 O        -2.8611712020       -4.8665247573       -1.2367417273
 C        -4.9156221688       -5.3751552579       -0.1548319028
 C        -5.9079522168       -4.4869072569       -1.0195217724
 O        -5.7014402505       -4.3610297110       -2.2377623621
 C        -7.2682953875       -3.9635465824       -0.4821427100
 C        -8.1460601778       -3.1810784186       -1.5444734670
 C        -8.7064486344       -1.8601990805       -0.9038887103
 O        -8.0704887569       -1.2375576129       -0.0507039387
 C        -9.9772524827       -1.2543599169       -1.4996393719
 C        -9.6965528983       -0.9586909725       -3.0509390754
 O        -8.6923328022       -1.4446451610       -3.5654975526
 C       -10.4264852199        0.1054646003       -3.7164824929
 C       -11.1463541193       -2.2408841183       -1.6482570102
 C       -10.4779625685       -0.0863944657       -0.6092602721
 C        -4.8622986204       -6.8230565381       -0.8233034039
 C        -5.5356192978       -5.5598251522        1.2184264536
 C        -3.2557536352        0.4323542130        1.8376141885
 C        -5.7392994936        0.3200763951        1.3884402504
 C        -1.0848756136       -1.1487057924       -3.4078477859
 C        -2.3760912264        0.7157809412       -4.5164542021
 C         3.0426820790       -2.4782758627       -6.7755356797
 C         1.5756086856       -3.4099060077       -8.6685899761
 C        -1.5430903626       -7.5234622273       -2.8516820147
 C        -0.9929644952       -7.8604829265       -5.3819177757
 C        -8.0297218948       -4.1276751990       -5.9623040810
 C        -7.8611413767       -6.4060230571       -6.9607773607
 C        -6.4547626897       -4.1098318662      -12.3775366516
 C        -4.0015290021       -4.3541934807      -12.2197108241
 C        -2.1235405911        1.7332684835      -16.8196772249
 C        -4.5123023186        1.4641733522      -16.7262943100
 C        -2.8995180422       -1.6164003942      -22.0556856707
 C        -0.7035358890       -0.9742037611      -23.0189107258
 C        -1.7319820426        3.2207119534      -27.3467536520
 C         0.7398168769        2.9994735647      -26.7190746626
 C        -0.5927610374        7.4152650213      -21.2343963326
 C         1.7470508383        6.5844204069      -21.0543801585
 H        -1.3510383269        6.3791037692      -18.8620420195
 H         0.2979459160        6.8198391441      -18.4908583052
 H        -0.4537950692        5.4109271001      -17.7635807699
 H         0.9679965557        7.0938727533      -23.8297911404
 H        -0.8614311887        6.8501647761      -23.9153147053
 H         1.0971879827        4.8532694742      -24.8525026144
 H         0.5874985385        6.1212314207      -25.8213532901
 H        -3.3364453684        2.3457989273      -25.6143581510
 H        -2.8544527393        3.0963533053      -24.0831834342
 H        -2.7487303503        0.0550909415      -24.6066593276
 H        -4.1585356435        0.8090973510      -23.9089133540
 H        -0.8406504701       -2.2833590041      -19.5724258774
 H        -2.6206151321       -1.9425818072      -19.8660786383
 H        -1.1150399416       -0.3851596294      -17.6062176848
 H        -1.7759083472       -1.8926814817      -17.3652342416
 H        -5.0346518508       -1.1956652377      -15.3506620051
 H        -5.0226551206        0.3039890504      -14.2919421692
 H        -3.4103860726       -1.0024777252      -12.8337317581
 H        -3.4169553426       -2.3662965683      -13.8344579749
 H        -7.5019695692       -2.8035399293      -10.2425862360
 H        -6.4184283758       -1.4238644082       -9.7419732346
 H        -7.5003468551       -2.6217316275       -7.8508646434
 H        -5.8462420231       -2.6518607679       -7.7233278302
 H        -4.9815255061       -6.2262359024       -7.6912581044
 H        -5.1337743213       -7.1399228449       -6.3509060266
 H        -3.1105602696       -4.9200110151       -6.2601002551
 H        -2.5239513907       -6.3490642081       -6.8041266155
 H         1.3166780795       -6.3590784564       -4.5807579816
 H         1.0867195104       -5.6069108882       -3.0089354449
 H         2.6353490926       -4.2224587195       -4.4513824819
 H         1.2343540176       -3.2081925419       -4.1186084158
 H        -1.1714134833       -3.1388569133       -7.2312886554
 H        -0.7982215694       -2.0360043774       -8.5077486964
 H        -2.6898202670       -0.9095766444       -7.3765004793
 H        -1.4685401306       -0.1481995159       -6.5793471781
 H        -5.5491879982       -0.3232363419       -3.9239807925
 H        -4.4914689979        1.0075439052       -3.2699868689
 H        -5.6230149258       -1.1846214475       -1.5467404380
 H        -6.1117075019        0.4402370250       -1.4033470746
 H        -2.1669547205       -1.8266312510        1.5317345509
 H        -2.7043105965       -2.0937648774       -0.2705430473
 H        -3.4130267473       -4.0521354677        1.9784279145
 H        -1.8915264581       -4.2272268782        1.3113043904
 H        -6.9806131857       -3.1859668252        0.2438200799
 H        -7.8139873104       -4.7923143712        0.1782773825
 H        -8.9163823113       -3.9871265328       -1.6550511190
 H        -7.6483090603       -2.9121116367       -2.5377345854
 H       -10.3895765558        0.9902361376       -3.1249759099
 H       -11.4615197765       -0.1181150471       -4.0126869779
 H        -9.7945936951        0.3175797957       -4.5868872682
 H       -10.8186077886       -2.9229625385       -2.4483067986
 H       -12.0111104887       -1.7821221150       -2.0109887731
 H       -11.3247289954       -2.7127377588       -0.6617632412
 H       -10.1709899695       -0.4153080079        0.3823253136
 H       -11.5095538742        0.2459594702       -0.7946846415
 H        -9.7593630616        0.8137477400       -0.8058471696
 H        -5.8823800460       -7.1077632889       -0.8629709194
 H        -4.3264145086       -7.5025360045       -0.1522944469
 H        -4.5123773606       -6.9172162296       -1.8822978726
 H        -6.3725278020       -6.2033862938        1.2292018847
 H        -5.9987842394       -4.6124066249        1.6357607732
 H        -4.7915368059       -5.9677011640        1.9042768739
 H        -3.4030827963        0.1708520535        2.8593383038
 H        -3.2775843406        1.5266944126        1.9415211660
 H        -2.2245182140        0.0164306917        1.6227895670
 H        -6.1322672697       -0.2407456147        2.2144750944
 H        -6.4611277333        0.2032288521        0.6236589144
 H        -5.6478023491        1.3596531503        1.7500225281
 H        -0.1821474033       -1.0503023198       -4.1195757898
 H        -1.1147556022       -2.1723164443       -2.9472636858
 H        -0.9527191475       -0.5341955404       -2.5252459887
 H        -1.5210100054        1.0754583560       -5.1036524992
 H        -2.3808359421        1.1517896175       -3.5614211759
 H        -3.2122988299        0.9699274113       -5.1250442940
 H         3.4491739751       -1.8761479039       -7.5273764250
 H         3.6683971745       -3.3463548050       -6.5980198315
 H         2.9319923092       -1.9407431940       -5.8348636162
 H         0.5444807842       -3.7991342319       -8.8248859562
 H         2.4045250759       -4.0983781287       -8.9331784769
 H         1.6327737261       -2.4403030482       -9.2285882280
 H        -2.4950779294       -8.0681794935       -2.8036050489
 H        -1.3686778874       -6.8446382992       -2.0227921834
 H        -0.7261747617       -8.2883296385       -2.8794599468
 H        -1.8100543583       -8.4667300202       -5.7886000430
 H        -0.2400940795       -8.5864831505       -5.1208135193
 H        -0.6651013233       -7.3313775330       -6.2126067105
 H        -8.8478664876       -3.8353876745       -6.5151046613
 H        -7.5578221317       -3.2875696067       -5.5355271076
 H        -8.4733686023       -4.6436752098       -5.0811067926
 H        -8.0691402995       -6.4959340532       -8.0150899030
 H        -8.7420386759       -6.3815731790       -6.4332267918
 H        -7.3751444420       -7.3299162881       -6.7097590349
 H        -6.7033469146       -4.9041945452      -11.6934546838
 H        -6.3476456356       -4.6367060030      -13.3789336793
 H        -7.2899751593       -3.5097322520      -12.5072208279
 H        -3.3537504236       -4.0726514364      -13.0831189911
 H        -4.3397585581       -5.4121159620      -12.1847709529
 H        -3.2455767256       -4.2111535363      -11.5161250166
 H        -1.1676237774        1.4817042339      -17.0406235667
 H        -1.9142006899        2.3347212259      -15.9389126893
 H        -2.4875900723        2.3308782906      -17.7004275959
 H        -5.4584673107        0.8709237887      -16.5777455001
 H        -4.4506866931        2.0141972243      -17.6860354239
 H        -4.4474927479        2.3315352466      -16.1230276109
 H        -3.3219987980       -1.8487056079      -23.0071145598
 H        -3.6513457211       -1.3478979355      -21.2904002994
 H        -2.4389645223       -2.5407690213      -21.8345749322
 H        -1.0695871957       -1.0389319106      -24.0191751152
 H        -0.4591323723       -2.0370354822      -22.7451676378
 H         0.1589941163       -0.3099186022      -23.0563198546
 H        -2.6831088955        3.2950996754      -26.9352208805
 H        -1.7172151789        2.3395755781      -27.9547570762
 H        -1.5782575376        4.0787032568      -27.8741451286
 H         0.9778907070        3.7283306923      -27.4394314641
 H         0.5794529748        1.9728178415      -27.1190664551
 H         1.4519479521        2.8780358499      -25.8819420150
 H        -0.4285042063        8.1012818353      -20.4369094634
 H        -1.6750268641        7.1784476013      -21.0628417378
 H        -0.4580994213        7.9217155417      -22.1605786282
 H         2.2765456793        5.7187968229      -21.4650532771
 H         2.0511454713        6.6883163474      -20.0036498141
 H         1.9215761688        7.4716365360      -21.5588681280
 Na       -3.5969456953       -4.1825462056       -3.5473397243
 Na       -0.2602035192        2.2890079177      -21.5932337379
