232

 C        -0.3216888206        5.9781355027      -18.7137262662
 C        -0.0389988642        5.2630526238      -19.9803800195
 O         0.1973090948        4.0527940413      -19.9667390841
 C         0.3461809276        6.1343970631      -21.1876464028
 C         0.0487416486        5.4134330029      -22.5387640427
 O         0.0493829281        4.1957118475      -22.6502930634
 C         0.1060354682        6.2540716303      -23.7998347825
 C         0.3851394770        5.4158916699      -25.0678538983
 C        -0.9010853261        4.7144371487      -25.5046473424
 O        -2.0057718634        5.1818906075      -25.3078450057
 C        -0.8325344907        3.3350712031      -26.1663216389
 C        -1.2410657224        2.4181430073      -24.9652132152
 O        -0.4201884704        1.9569281706      -24.2201288408
 C        -2.7027005833        2.2139384447      -24.7642141560
 C        -3.1377294447        0.9091096436      -23.8961324202
 C        -2.4112909593        0.8202089500      -22.5594176311
 O        -2.4516055644        1.8719378587      -21.9356155534
 C        -1.8092923054       -0.4970143511      -22.0256955847
 C        -1.2268079608       -0.4274878169      -20.5080756543
 O        -0.4119598601        0.4118037547      -20.1779407574
 C        -1.6630095073       -1.5901722101      -19.6063145747
 C        -1.9011373482       -1.1010789463      -18.1111722527
 C        -3.1792975516       -0.2378872345      -17.8558060918
 O        -4.1712368655       -0.4783434851      -18.5549051370
 C        -3.2123598965        0.7933239034      -16.6858026721
 C        -3.0093622147       -0.0383639379      -15.3260081892
 O        -1.9268380483       -0.2686864632      -14.9000998116
 C        -4.2439438829       -0.6162022308      -14.6409797939
 C        -3.9911839230       -1.5684055399      -13.5163917049
 C        -5.2138160536       -1.9923500074      -12.6757328391
 O        -6.2168954270       -1.3938218475      -12.4352983813
 C        -5.1870672026       -3.4922615642      -11.9414865475
 C        -5.1295465646       -3.1217351526      -10.3946898205
 O        -4.0700090358       -3.0806807009       -9.7435363656
 C        -6.4290882028       -2.5033090831       -9.7816755117
 C        -6.6767393742       -2.8803295500       -8.2829417044
 C        -7.0411585125       -4.4508202957       -8.2323524211
 O        -6.9127799341       -5.2205051969       -9.1764570077
 C        -7.2410276646       -5.1328595622       -6.6949423647
 C        -5.7227977205       -5.1607496055       -5.9970156366
 O        -5.4619643694       -4.2285430920       -5.2768610461
 C        -4.6350816880       -6.1551308013       -6.5839889013
 C        -3.2058203226       -6.0173788389       -6.2428818599
 C        -2.8306568013       -6.4640636556       -4.8544159447
 O        -3.8110694412       -6.5334223910       -4.0588734048
 C        -1.4666761730       -6.8787421744       -4.3479390576
 C        -0.6287555492       -5.4576545574       -4.1026646067
 O        -1.3387531527       -4.4527708908       -3.8602145103
 C         0.9206383082       -5.5303680505       -3.8814711491
 C         1.5799665913       -4.3017657053       -4.6249795594
 C         1.1372195162       -4.2422430275       -6.1181867137
 O         0.3572992486       -5.0938689545       -6.5293243213
 C         1.5729356062       -3.0347267501       -6.9686176652
 C         0.4482533561       -1.9897032440       -6.7708516469
 O         0.7057809971       -0.9845872253       -6.1052558299
 C        -0.9304784658       -2.2131311266       -7.4364151170
 C        -1.9127418241       -1.1650694832       -6.9328750084
 C        -2.3857882531       -1.6826595401       -5.4679153208
 O        -2.7066287560       -2.8363832504       -5.4141931333
 C        -2.4277643617       -0.7944184334       -4.1298106033
 C        -3.6014897290       -1.1772127004       -3.2116530006
 O        -3.6137327450       -2.1666876812       -2.5246722668
 C        -4.6708493736       -0.1636744460       -2.8890906956
 C        -5.2081968226       -0.2798423565       -1.5202956756
 C        -4.1798573597        0.1591762093       -0.5156965727
 O        -3.0987117296        0.5810895998       -0.9265201775
 C        -4.4562252807       -0.1361182420        0.9819501464
 C        -4.3393377616       -1.7457823121        1.1334289151
 O        -5.2286975907       -2.4688774742        1.5286927552
 C        -2.9969268850       -2.4552317286        0.7176520934
 C        -2.9179202192       -3.9980889054        0.8805452894
 C        -3.5114550950       -4.6872592485       -0.3012023775
 O        -2.7813725809       -4.6554313983       -1.2694143314
 C        -4.9903134777       -5.4508986617       -0.1878693531
 C        -5.9657180638       -4.6029983779       -1.1477498593
 O        -5.7600258118       -4.4566816768       -2.2938960196
 C        -7.2575750507       -3.9879309605       -0.4397177037
 C        -8.0747829438       -3.2339753949       -1.4795543222
 C        -8.5853389227       -1.8940792521       -0.9792348707
 O        -7.9836841778       -1.2991808441       -0.0937980275
 C        -9.9043859985       -1.2908146593       -1.5568075315
 C        -9.4442459405       -0.7321712456       -3.0338849613
 O        -8.6406002279       -1.4621096712       -3.5790466371
 C       -10.3194060920        0.2382270287       -3.8465577923
 C       -11.0462466687       -2.4016164274       -1.6601007653
 C       -10.4315304483       -0.1454862493       -0.5936435508
 C        -4.8350865112       -6.8013128455       -0.8926758333
 C        -5.3960212865       -5.6172573531        1.2693635343
 C        -3.3503483029        0.4510151925        1.8333300732
 C        -5.7910098442        0.4466661809        1.3903108295
 C        -1.1786811294       -1.1545937636       -3.2736050374
 C        -2.3782219034        0.7050260338       -4.5376666235
 C         2.9901443551       -2.4519735589       -6.6840423843
 C         1.5507555972       -3.5162254931       -8.4795984887
 C        -1.6907776388       -7.5160403355       -2.8858074726
 C        -0.8321876988       -7.8074888953       -5.2626545049
 C        -8.1132414966       -4.1628045003       -5.8604639009
 C        -7.9237129041       -6.5802392539       -6.8047710766
 C        -6.4980287574       -4.1786721463      -12.3977994781
 C        -3.9571674906       -4.4270343009      -12.2517626438
 C        -1.9843713217        1.7634303226      -16.8230250794
 C        -4.6076686867        1.5758342162      -16.7162966032
 C        -3.1060832553       -1.3742864111      -22.1647279407
 C        -0.6778372148       -0.9600279055      -22.9998281136
 C        -1.7256014401        3.1992087494      -27.4503660463
 C         0.5826278499        3.0339191336      -26.6502436429
 C        -0.4533392357        7.5185284074      -21.1677197879
 C         1.9114975988        6.5891687976      -21.0791687994
 H        -1.3886883432        5.9159522008      -18.6223883167
 H         0.0084509571        7.0414461020      -18.7002633639
 H         0.0077749578        5.4880137712      -17.8109393155
 H         0.8487769965        7.0952955646      -23.6336576448
 H        -0.8790266172        6.6235326070      -23.9313880949
 H         1.0612419461        4.5812147918      -24.7853805702
 H         0.8466264541        5.9323699000      -25.8666272733
 H        -3.0883874126        2.1068548800      -25.7028029289
 H        -3.1708410913        3.2081298069      -24.3886594260
 H        -3.2404872693       -0.0139136863      -24.5240737053
 H        -4.1921145359        1.0570517287      -23.4846966381
 H        -0.7875321695       -2.2465359499      -19.5316902965
 H        -2.4867535414       -2.1428039506      -20.0665383377
 H        -1.0272724778       -0.6609039614      -17.6558485858
 H        -2.1304203970       -1.9992242902      -17.5356331538
 H        -4.7869859871       -1.2986505019      -15.3814116115
 H        -4.9899945168        0.1457396372      -14.3377557150
 H        -3.2641941305       -1.1554406283      -12.7836221983
 H        -3.5065153001       -2.4010634202      -13.8566067720
 H        -7.3559338746       -2.7366219668      -10.3232591702
 H        -6.2530652212       -1.3208047998       -9.8523955271
 H        -7.4236390349       -2.2460890358       -7.8568570711
 H        -5.8253052171       -2.5905528203       -7.7578573663
 H        -4.9600522117       -6.1839779499       -7.6087799634
 H        -5.0264183423       -7.1460993099       -6.2428845019
 H        -2.8065351641       -4.9909831210       -6.3466059059
 H        -2.5310479615       -6.5928686994       -6.9073594821
 H         1.3123832337       -6.4874858391       -4.2971705016
 H         1.1318784377       -5.4838775476       -2.8129449792
 H         2.6253319934       -4.3374384733       -4.3611102019
 H         1.2771956628       -3.3226877143       -4.1385391185
 H        -1.1893026624       -3.2368695469       -7.2044888454
 H        -0.8884369212       -2.2454158336       -8.5014590978
 H        -2.8327122278       -0.8212327612       -7.5685963892
 H        -1.4181372414       -0.1756835372       -6.6945785698
 H        -5.4341926024       -0.3804606394       -3.6833436660
 H        -4.3203984484        0.8835445530       -3.0382319159
 H        -5.4823655100       -1.2963000756       -1.3282787295
 H        -6.1318272571        0.2864390056       -1.3573066995
 H        -2.4173520516       -2.1285826150        1.5476380575
 H        -2.7382365577       -2.0335642947       -0.2878826316
 H        -3.3381654744       -4.1842151944        1.8843154033
 H        -1.9102799711       -4.2484400961        1.0745282319
 H        -7.0188803135       -3.2829048990        0.4179352564
 H        -7.8031657812       -4.8333283185        0.0309600925
 H        -8.7893846559       -4.0366717342       -1.7144421757
 H        -7.4751082440       -2.9272384172       -2.3929359026
 H       -10.7196133885        1.1643260560       -3.3868925169
 H       -11.1480244950       -0.4063333049       -4.1538366594
 H        -9.7958636904        0.4673132713       -4.6881305026
 H       -10.7503269257       -3.1188688417       -2.4201743984
 H       -11.9928283355       -1.9794432060       -1.8801015866
 H       -11.1132536512       -2.8189862081       -0.6218289736
 H       -10.6312776571       -0.6811845392        0.3383305307
 H       -11.3011589908        0.3192917895       -1.0803529468
 H        -9.7215238878        0.6343490013       -0.3646608273
 H        -5.7508883607       -7.2831299702       -1.0379618435
 H        -4.1132064311       -7.4271022005       -0.3975958813
 H        -4.4695802255       -6.5804631387       -1.8842923103
 H        -6.3471512808       -6.0834524703        1.3513749706
 H        -5.6333476841       -4.6119190887        1.7393488706
 H        -4.6792570588       -6.1273299249        1.8522745427
 H        -3.2407400826        0.0810687084        2.9034289149
 H        -3.6121684395        1.4911062922        2.0361697803
 H        -2.3584550353        0.2989808857        1.4196778206
 H        -5.9944726048        0.0496539734        2.4050005423
 H        -6.6556386114        0.1064449458        0.8131259989
 H        -5.6801607935        1.4642533169        1.5865445575
 H        -0.2223169842       -1.1621329085       -3.7803899806
 H        -1.3080262728       -2.0946704499       -2.6941274781
 H        -1.1896234359       -0.4455678755       -2.3944686381
 H        -1.5022048349        0.8705815091       -5.1439961206
 H        -2.3024427791        1.2725042326       -3.6203299418
 H        -3.1629782562        1.0211726227       -5.2301260606
 H         3.1997209425       -1.7133647349       -7.4839841535
 H         3.7270215135       -3.2414289664       -6.7580969221
 H         3.0268860732       -1.9686800585       -5.7288339021
 H         0.7680586197       -4.2714727185       -8.5939268773
 H         2.5833623025       -3.8680562159       -8.6971131098
 H         1.2759084383       -2.6528380735       -9.1002718337
 H        -2.7359205514       -7.7949527317       -2.8860246777
 H        -1.4765895268       -6.8283911808       -2.0735961954
 H        -1.0144348356       -8.4212194323       -2.7428086144
 H        -1.4012574621       -8.7074476225       -5.3779628745
 H         0.1662823287       -8.0883088089       -5.0528126975
 H        -0.8048733302       -7.3635862786       -6.2767907963
 H        -9.1755913575       -4.1019079025       -6.1328248538
 H        -7.7316100645       -3.1431488030       -5.8090961442
 H        -8.1454759670       -4.4474052896       -4.8835686827
 H        -8.2730012039       -6.8324610645       -7.7926385132
 H        -8.7027940054       -6.6853872116       -6.0304501381
 H        -7.1982853668       -7.3539675178       -6.5703919216
 H        -6.6472836451       -5.1114173577      -11.8876127216
 H        -6.5065771977       -4.4337846833      -13.5128065431
 H        -7.4174457164       -3.5825609798      -12.3471730709
 H        -3.1176172458       -3.9777751681      -12.8432863843
 H        -4.3909509298       -5.2685269449      -12.7509258001
 H        -3.3550322561       -4.7684427949      -11.4246922278
 H        -1.0259205334        1.2418766012      -16.7660032933
 H        -1.8915646126        2.4610882067      -16.0293790296
 H        -2.0097420744        2.2815403160      -17.7828463696
 H        -5.4709244513        0.8656460406      -16.6077511204
 H        -4.5657782153        2.2133103708      -17.6182905123
 H        -4.5978055597        2.4381166457      -16.0603685671
 H        -3.3555366190       -1.3037582090      -23.1627680883
 H        -3.8299271592       -1.0175234021      -21.4922137165
 H        -2.9717934203       -2.4963921905      -22.0217191156
 H        -1.1725838723       -1.0447920813      -23.9514627152
 H        -0.3530715167       -1.9213066693      -22.7447970643
 H         0.1421398526       -0.2463229018      -23.1863232694
 H        -2.6901352805        3.4702351507      -27.1733980569
 H        -1.7156195260        2.2789749950      -27.8955728723
 H        -1.3336107604        3.9471184086      -28.1072467194
 H         0.7953749823        3.8361777464      -27.4093672534
 H         0.5932563964        2.0283882716      -27.0730130411
 H         1.2172888989        2.9916366547      -25.7828720546
 H        -0.1893146610        8.2373808545      -20.4145106637
 H        -1.4709430572        7.3149938851      -20.9425367587
 H        -0.4508331241        7.9933274009      -22.1911245814
 H         2.4578788936        5.6656932876      -20.9126419048
 H         2.0668760230        7.3217604413      -20.2327753488
 H         2.2362643779        7.1798806704      -22.0179989236
 Na       -3.4980766418       -4.2119141413       -3.4992855583
 Na       -0.3409305668        2.2747050038      -21.5940513753
