232

 C        -0.3328066169        5.9365491386      -18.5519318371
 C        -0.1020331179        5.3095635990      -19.9285358987
 O        -0.2926627664        4.1190711635      -19.9959327367
 C         0.4513380841        6.2167630619      -21.1477897758
 C         0.0535950778        5.5372505482      -22.5537579547
 O        -0.2309685385        4.3676281507      -22.6374365164
 C         0.1239238708        6.3463426779      -23.8636128187
 C         0.4068019653        5.3979229587      -25.0507572437
 C        -0.9339667121        4.7264399117      -25.5617463666
 O        -2.0207362805        5.2222190883      -25.3674038636
 C        -0.8716150488        3.2173839690      -26.2553981997
 C        -1.4170148834        2.2840344386      -25.1794552726
 O        -0.7014415096        1.7892460174      -24.2819401543
 C        -2.8545904575        2.2422558095      -24.8484786406
 C        -3.1088603111        1.0816611589      -23.9049231083
 C        -2.5568565454        0.9654718173      -22.4518737682
 O        -2.5414154324        1.9578405795      -21.7560352333
 C        -2.1241585999       -0.4740226517      -21.9990228409
 C        -1.5412677067       -0.4338905711      -20.5838466292
 O        -0.6028404752        0.3383019143      -20.3947336364
 C        -1.8569755703       -1.5430699582      -19.5433501178
 C        -1.9184986831       -0.9803835416      -18.1969704130
 C        -3.1810183672       -0.1918913881      -17.9765645265
 O        -4.1905398393       -0.3711522699      -18.5944406845
 C        -3.1713344992        0.8228731272      -16.7224521746
 C        -3.0030932436       -0.0603055658      -15.4133554189
 O        -1.8645390767       -0.2852147252      -15.0380548048
 C        -4.1903405718       -0.5737640893      -14.7349855768
 C        -3.6508286821       -1.6297532801      -13.6604213421
 C        -5.0003514218       -2.1254601926      -12.8108580920
 O        -5.9583117580       -1.3302975354      -12.7479820390
 C        -5.0755624450       -3.4510168829      -12.0386236115
 C        -5.1071925914       -3.1120237514      -10.3801472541
 O        -4.0332266193       -3.0689098837       -9.8328837751
 C        -6.3403824232       -2.4678123396       -9.7058892766
 C        -6.7208626043       -2.9972737465       -8.2730627185
 C        -6.9274075747       -4.4938479745       -8.1319503674
 O        -6.8596691085       -5.2977458836       -9.0442853246
 C        -7.0599919821       -5.0086822928       -6.6530825643
 C        -5.6225200515       -5.0348657647       -6.0430310870
 O        -5.3812529920       -4.2234948372       -5.1769454569
 C        -4.6988214155       -6.1130867002       -6.6121355674
 C        -3.1916607780       -5.9547351981       -6.4190195048
 C        -2.8758653850       -6.4914072158       -4.9330686072
 O        -3.7676984536       -6.4326527582       -4.1710840220
 C        -1.3955720421       -6.7211516292       -4.3145942683
 C        -0.5881467839       -5.4455869705       -4.1107861033
 O        -1.0998439388       -4.3724981977       -4.0642791799
 C         0.9864901242       -5.4625698636       -3.6856306337
 C         1.6888194349       -4.4363296479       -4.5984333471
 C         0.9680694481       -4.3497564923       -5.9559327330
 O         0.1996636398       -5.2011363190       -6.3969963054
 C         1.4933837736       -3.0824410285       -6.9431588655
 C         0.3975856580       -1.9389691790       -6.8362323215
 O         0.7054690515       -0.9365083758       -6.2305421275
 C        -1.0247254206       -2.1709394297       -7.4552181942
 C        -2.0950493562       -1.2659153654       -6.7740064883
 C        -2.5793886543       -1.8226253248       -5.3488499675
 O        -3.0180871876       -2.9240439129       -5.1852105420
 C        -2.4166535573       -0.7510077964       -4.0726238422
 C        -3.6601509208       -1.0334249396       -3.1523432364
 O        -3.6230051373       -2.1084928893       -2.5747507359
 C        -4.8472314118       -0.0795369902       -2.9203251288
 C        -5.3171892375       -0.3308968384       -1.3782873273
 C        -4.2553253862        0.0738392540       -0.3514331982
 O        -3.2366741491        0.6203544379       -0.7146933293
 C        -4.4142775817       -0.1777759575        1.1959116824
 C        -4.4201469564       -1.7681749546        1.3014361395
 O        -5.3994243996       -2.4134295204        1.6032698034
 C        -3.1013585147       -2.3304508743        0.7560314982
 C        -3.0333302504       -3.9035959491        0.8697125475
 C        -3.4946453574       -4.7291257030       -0.3093386991
 O        -2.8955698740       -4.5767101197       -1.3665587491
 C        -4.8628023186       -5.5249091714       -0.2871952355
 C        -5.8761053797       -4.6543468108       -1.0872856622
 O        -5.7492516892       -4.5600615433       -2.3507316042
 C        -7.0996476257       -4.0528710073       -0.4497582068
 C        -8.0150637681       -3.3588085849       -1.4956869420
 C        -8.4447385304       -1.9811532920       -1.0192899457
 O        -7.8734643504       -1.3627889864       -0.1329624449
 C        -9.8572878577       -1.3881751505       -1.6882839469
 C        -9.2983998808       -0.7850943127       -3.0524794791
 O        -8.4001966264       -1.2745642790       -3.7484552818
 C       -10.1643016577        0.3080357274       -3.6776994235
 C       -10.8731076517       -2.5142615979       -1.9001221064
 C       -10.2709934747       -0.2328005466       -0.7832811156
 C        -4.5861230823       -6.8836801921       -1.0207581896
 C        -5.3994642626       -5.8055257039        1.1923692422
 C        -3.3101535843        0.4505229431        1.9860568773
 C        -5.8200188271        0.2245618603        1.6224622419
 C        -1.0790753510       -1.0931670792       -3.3693920351
 C        -2.3487719943        0.7247289696       -4.5154992193
 C         2.8622024039       -2.4931200630       -6.3418346955
 C         1.6285559412       -3.6422489537       -8.3915229525
 C        -1.4936604750       -7.4618578162       -2.9976052864
 C        -0.4966915330       -7.6843302367       -5.2385151081
 C        -8.1149134947       -4.1657908743       -5.7715239664
 C        -7.5900387336       -6.4348962919       -6.7239864727
 C        -6.3352841505       -4.2338439278      -12.2161556557
 C        -3.8990369141       -4.3963342040      -12.2136428377
 C        -1.9941031608        1.8278069681      -16.8738064542
 C        -4.4852006026        1.6964593588      -16.7891834913
 C        -3.2353562854       -1.4783995955      -22.1803921625
 C        -0.9249630054       -0.9447241601      -22.8345083926
 C        -1.8021118315        3.2790509327      -27.4675107108
 C         0.5513208226        2.7027025814      -26.6256918499
 C        -0.2848309499        7.5650564565      -21.1544958477
 C         2.0489925208        6.3713501671      -21.2072224115
 H        -1.1120259304        5.4284106239      -17.9126574596
 H        -0.2335936544        7.0070058290      -18.4505126680
 H         0.6180552021        5.6214955710      -18.0538021539
 H         0.9793411595        6.9660840536      -23.8193241367
 H        -0.8016139303        6.9878014366      -24.0988596460
 H         1.2895086114        4.7416319587      -24.9326364904
 H         0.6859632326        6.1196287424      -25.9110512649
 H        -3.5836891520        2.1420124821      -25.7379474422
 H        -3.1801897418        3.1646168199      -24.4085210059
 H        -2.8141619652        0.1263970764      -24.3308101000
 H        -4.1779862440        0.9422500164      -23.9229626403
 H        -1.1045157816       -2.3083504803      -19.5435630515
 H        -2.7941633238       -1.9739850912      -19.9018929113
 H        -1.0832662238       -0.2416541756      -18.0408051951
 H        -1.8867275159       -1.7116684644      -17.3281035911
 H        -4.8112248249       -1.1090599893      -15.3850312007
 H        -4.7687868635        0.1229711409      -14.1481695994
 H        -2.8508599725       -1.2463429233      -13.0342566191
 H        -3.2296138822       -2.5237328260      -14.2828454371
 H        -7.1891392691       -2.7460867350      -10.3111011214
 H        -6.2854892298       -1.4632580513       -9.6864311845
 H        -7.6299148529       -2.3716144668       -8.0427309247
 H        -5.9268380581       -2.5121624794       -7.6222387041
 H        -4.9613751348       -5.8956258523       -7.7024685488
 H        -5.0490946477       -7.1293964425       -6.5170611333
 H        -2.7441565710       -4.9355087512       -6.3992036002
 H        -2.6840665588       -6.4797303121       -7.2567463885
 H         1.4341723437       -6.4582932662       -3.6665688692
 H         0.9644154086       -5.1123891141       -2.6212603308
 H         2.7850744631       -4.6183242821       -4.6881844944
 H         1.7039148934       -3.4788244404       -4.1657589907
 H        -1.1784791617       -3.2565256838       -7.4449448610
 H        -1.1430087405       -1.9256160412       -8.5470747095
 H        -2.9646258860       -1.2915336735       -7.3657720558
 H        -1.8508565013       -0.2318825917       -6.7873990195
 H        -5.6608424028       -0.4473801828       -3.5241056647
 H        -4.6314415419        0.9322599216       -3.1565938534
 H        -5.5612669205       -1.4363915587       -1.2352772095
 H        -6.2634867524        0.1767836186       -1.1836871953
 H        -2.2580080285       -1.8325371201        1.2856013413
 H        -3.3087146126       -2.1575856732       -0.2704362684
 H        -3.3205148978       -4.2667697377        1.8359802944
 H        -1.9295780274       -4.0941773766        0.8787147859
 H        -6.8538633898       -3.3833459167        0.3106276268
 H        -7.4797306332       -4.9524533698        0.0404410759
 H        -8.8715457499       -3.9934672587       -1.4948148828
 H        -7.5935057445       -3.3865619614       -2.4543703801
 H       -10.4882806800        0.9722801718       -2.9109432470
 H       -11.0853400108       -0.1867098630       -4.0553648810
 H        -9.7102727527        0.9519482886       -4.5134979358
 H       -10.5578262015       -3.2106233267       -2.7171744247
 H       -11.8109917374       -1.9539098215       -2.0574980722
 H       -11.0236489377       -3.0113516604       -0.9585860922
 H       -10.9907512193       -0.6137770662       -0.1362690685
 H       -10.7080510591        0.5330449322       -1.3447973246
 H        -9.4377024555        0.1837986848       -0.1976259721
 H        -5.4250351554       -7.6004457754       -0.9577340174
 H        -3.6575856615       -7.2877206243       -0.6265546799
 H        -4.3452689457       -6.7667239283       -2.0967925914
 H        -6.2955847494       -6.4368925942        1.2087251995
 H        -5.6244785385       -4.9302456612        1.7968633626
 H        -4.5940790800       -6.2300964984        1.8406899087
 H        -3.1993456712       -0.0503323239        2.8881176070
 H        -3.5520249816        1.4594150134        2.2880543086
 H        -2.3236965021        0.3270619131        1.5268112347
 H        -5.8985525006        0.6574367145        2.6062548002
 H        -6.4390454513       -0.6520943794        1.6017797050
 H        -6.1211142623        1.1511102448        1.0382746281
 H        -0.2416641402       -0.7612430948       -3.9923098497
 H        -0.9152182258       -2.1361123694       -3.2851410208
 H        -1.0269928743       -0.7636793726       -2.4003649844
 H        -1.4194686137        0.9732192789       -5.0767121188
 H        -2.4039178384        1.3259042790       -3.6017386951
 H        -3.1215616583        0.9687657868       -5.2475860502
 H         2.9884422952       -1.5422920251       -6.8350310998
 H         3.7417688425       -3.1293336841       -6.5926517959
 H         2.7939385476       -2.2627184352       -5.2455099277
 H         0.8313361166       -4.3440250753       -8.5648952121
 H         2.5758894245       -4.0877905602       -8.5179148278
 H         1.5289537868       -2.8089740968       -9.0571997546
 H        -2.1597898795       -8.3370697491       -3.0728025071
 H        -1.9622911575       -6.7313753257       -2.3190099060
 H        -0.4929553407       -7.5625096352       -2.6582117541
 H        -0.7831120545       -8.7914036126       -5.1938231799
 H         0.5733515076       -7.6016619694       -4.8980791427
 H        -0.3820939065       -7.3990053581       -6.2729160930
 H        -9.1419495796       -4.4999422783       -5.8901841984
 H        -8.1778620261       -3.0808111354       -5.9151292896
 H        -7.9704586938       -4.3245649153       -4.6078839133
 H        -8.5010404187       -6.5433766121       -7.3816955853
 H        -7.7829073847       -6.7959979738       -5.7129674798
 H        -6.8352061938       -7.1258632580       -7.1892055058
 H        -6.3513963893       -5.1646106679      -11.5870235252
 H        -6.5077163085       -4.4835519515      -13.2496961207
 H        -7.2492488387       -3.6853018666      -12.0612489704
 H        -3.0536920197       -4.1375693672      -11.6073431967
 H        -3.5933174908       -4.5303416875      -13.2853723211
 H        -4.1754847066       -5.3678310473      -11.7834868294
 H        -1.1120690648        1.6772788657      -16.2944168990
 H        -2.3918827939        2.8461754492      -16.5534457328
 H        -1.6567588664        2.0122209335      -17.9175296064
 H        -5.3408455047        1.0643441738      -16.9133023119
 H        -4.2850859042        2.4757838633      -17.5021913596
 H        -4.5244215742        2.3617741531      -15.9364890496
 H        -3.4307251920       -1.5539146461      -23.2991640034
 H        -4.0922590176       -1.1268743634      -21.4923300280
 H        -2.9891608196       -2.4143370889      -21.7554069437
 H        -1.1706629372       -0.9245518979      -23.8864382271
 H        -0.5880190805       -1.9533889882      -22.4640651451
 H        -0.1275710047       -0.2449188093      -22.7567958033
 H        -2.5359649283        4.1317213760      -27.2452211517
 H        -2.3983673489        2.2610457795      -27.5416906688
 H        -1.2313773745        3.4027081781      -28.4200039430
 H         0.9892751394        3.5637308191      -27.0164020118
 H         0.5688087260        1.9521627413      -27.4275184969
 H         0.9661342464        2.2423576378      -25.7003759788
 H        -0.0241059645        8.1356588111      -20.2451330870
 H        -1.4328673534        7.4993564169      -21.2475776892
 H        -0.0164801779        8.1259677287      -22.0064643982
 H         2.4627038125        5.5371278897      -20.5607881946
 H         2.3852926946        7.4111994822      -20.9949109089
 H         2.3549012322        6.2620872190      -22.2265639750
 Na       -3.7923599253       -4.2316124945       -3.5418625836
 Na       -0.2187900056        2.2945934223      -21.4314619239
