232

 C        -0.1575996401        6.0110005885      -18.5699547366
 C        -0.0927968725        5.2864405441      -19.9475212180
 O        -0.4601842420        4.1105059443      -19.9418313482
 C         0.3287156368        6.2035457805      -21.2052514142
 C         0.0160362579        5.5663878633      -22.6056666414
 O        -0.3489202137        4.3950826204      -22.7037801156
 C         0.2412065719        6.4208085413      -23.8606512799
 C         0.3556599079        5.4572366441      -25.0949540958
 C        -0.9003425665        4.6413549476      -25.5238191492
 O        -1.9966163542        5.1483339712      -25.4776107368
 C        -0.8560645921        3.2425329560      -26.1708794836
 C        -1.4254761302        2.4034077259      -24.9238370637
 O        -0.6501446283        1.6604199338      -24.3254959453
 C        -3.0041131969        2.2857617425      -24.7594118151
 C        -3.4633023805        1.0596279026      -23.9966316315
 C        -2.6616424223        0.9231130732      -22.5353673776
 O        -2.5982663483        1.9288138211      -21.8244818855
 C        -2.2209242900       -0.4805742088      -22.0347300870
 C        -1.5930384779       -0.4375950813      -20.6011158122
 O        -0.7122085223        0.3319132228      -20.2355081318
 C        -1.9444833194       -1.4706686286      -19.5488774546
 C        -1.8450421389       -0.8459423791      -18.1452199815
 C        -3.2309748480       -0.1122861589      -17.8598756478
 O        -4.1385000838       -0.3212194467      -18.6666655739
 C        -3.2349217111        0.9170839645      -16.7222369454
 C        -2.8459088763       -0.0593969426      -15.3863643375
 O        -1.7534621236       -0.3501603094      -15.0661155680
 C        -4.0920573016       -0.6199602635      -14.7285076613
 C        -3.8218831907       -1.8056535232      -13.7291229774
 C        -4.9834784392       -2.0769811269      -12.8334328889
 O        -5.8862891771       -1.3302199055      -12.8843178678
 C        -4.9820987363       -3.4150306924      -11.8897073578
 C        -4.9915496293       -2.9674590571      -10.4569324858
 O        -4.0050816779       -3.1016447675       -9.7039574092
 C        -6.3775127006       -2.4896913852       -9.8285874439
 C        -6.5831242268       -3.0027449157       -8.3282699856
 C        -6.8521192701       -4.4807316043       -8.1053598168
 O        -6.8407413918       -5.2866739522       -9.0215889422
 C        -7.0346564201       -5.1042835300       -6.6380766184
 C        -5.5561802847       -5.0623911868       -6.0110650390
 O        -5.2979447638       -4.1896255152       -5.1806430363
 C        -4.5509862850       -6.0117187425       -6.7050493196
 C        -3.0347950991       -5.9088497743       -6.3040575487
 C        -2.7448509664       -6.3921234015       -4.8788177693
 O        -3.7133539428       -6.6560343844       -4.1826715082
 C        -1.2887945720       -6.7504661704       -4.3599027255
 C        -0.5637722687       -5.3994423935       -4.1154090448
 O        -1.2745261855       -4.3577210298       -4.0486635627
 C         0.8999392878       -5.3962431899       -3.6853971777
 C         1.7579170262       -4.4684830283       -4.6439239916
 C         1.1138149277       -4.3161170088       -5.9681414660
 O         0.1898909148       -5.0536637015       -6.2584425031
 C         1.4571973432       -3.1543336753       -6.8655690195
 C         0.2773198905       -2.0010763985       -6.7601250971
 O         0.6406380761       -0.9138827185       -6.2887096055
 C        -1.0626605191       -2.2593455106       -7.3421774056
 C        -2.1454838062       -1.2587686416       -6.6969596539
 C        -2.6279648149       -1.6874225171       -5.3034654493
 O        -3.0837837762       -2.7786770067       -5.1846589154
 C        -2.4768424621       -0.7323669752       -4.1490818248
 C        -3.5897957542       -1.0453126464       -3.0954053439
 O        -3.6869584758       -2.1036330886       -2.5015066423
 C        -4.7604394682       -0.0930942173       -2.8019140015
 C        -5.3782586876       -0.2216722437       -1.3710243234
 C        -4.2892909877        0.1962908082       -0.3773936814
 O        -3.1975160908        0.6582694094       -0.7190527564
 C        -4.5469236511       -0.1821122449        1.2297299115
 C        -4.4357816753       -1.7666465261        1.2128854718
 O        -5.3159721212       -2.4533077949        1.7025768240
 C        -3.0794057253       -2.4028817788        0.7268461267
 C        -2.9543954097       -3.9433373719        0.9265505649
 C        -3.4928228963       -4.6065446330       -0.3154463700
 O        -2.8443004687       -4.6198575295       -1.3090251509
 C        -4.8199291352       -5.5999454924       -0.2835141110
 C        -5.9117654371       -4.8244701123       -1.1479233823
 O        -5.6732404654       -4.6083850334       -2.2956288924
 C        -7.1001347540       -4.0529605499       -0.4091866034
 C        -8.0528041382       -3.4510835987       -1.4665800398
 C        -8.5485564165       -2.1032360034       -1.0132417455
 O        -7.8739157591       -1.4363422094       -0.2549786783
 C        -9.6830047621       -1.3342618071       -1.7373925226
 C        -9.2347477914       -0.7656234959       -3.1028765290
 O        -8.2949263130       -1.2442527038       -3.7208799589
 C       -10.1151943602        0.3595710813       -3.7464617702
 C       -10.7846065649       -2.4219004038       -2.0889741149
 C       -10.2201204121       -0.3660040650       -0.7297400476
 C        -4.4963780471       -6.8960416412       -0.9589325290
 C        -5.4170685924       -5.9388554486        1.0887546781
 C        -3.3676120402        0.3843741265        2.0791921910
 C        -5.9497034913        0.2707407423        1.8675085831
 C        -1.1207357143       -1.1223587276       -3.4813333472
 C        -2.4391697532        0.7764941588       -4.5501518439
 C         2.7406928490       -2.5800027759       -6.3504191297
 C         1.6949761691       -3.5806332393       -8.2872926334
 C        -1.4090075794       -7.4486699997       -2.9759546296
 C        -0.6265844453       -7.7241647086       -5.4698096481
 C        -7.9132173322       -4.1113659170       -5.8284534997
 C        -7.6093409461       -6.5506645708       -6.7742942658
 C        -6.3729543234       -4.1963924714      -12.2887693172
 C        -3.7384812810       -4.3725717179      -12.1893529349
 C        -1.9720444164        1.8593551844      -16.9682679927
 C        -4.5623346252        1.7158577139      -16.7810122999
 C        -3.4409430750       -1.6091243833      -22.2451783429
 C        -1.0567399672       -0.9374659120      -22.9423098195
 C        -1.8264155595        3.3036047040      -27.4877166992
 C         0.4960419547        2.6605172276      -26.6340312409
 C        -0.1490898657        7.6313213708      -21.1514447544
 C         1.9388187423        6.1878859048      -21.1129088737
 H        -0.8374962661        5.4976961026      -17.9173325032
 H        -0.4281455916        7.0738418241      -18.7390905036
 H         0.7545583468        6.1284493805      -18.0052103007
 H         1.1504021649        7.0249541723      -23.8456624449
 H        -0.6443712027        7.0973129603      -23.9100214085
 H         1.1174085461        4.7243120605      -24.8113375927
 H         0.7305038764        5.9444319729      -25.9259599250
 H        -3.4756269598        2.2942050554      -25.6819913847
 H        -3.5733431347        3.1506745057      -24.1673532817
 H        -3.2553521315        0.1443342943      -24.4674840358
 H        -4.5123944111        1.0336605645      -23.9704196655
 H        -1.2917039147       -2.3618450640      -19.6896431904
 H        -3.0035206276       -1.8255335848      -19.8206293728
 H        -1.0945612109       -0.0851073720      -18.0857225061
 H        -1.7243768286       -1.5094315024      -17.3250585199
 H        -4.7671083761       -1.0529923915      -15.4897843646
 H        -4.6262881673        0.0079924612      -14.0235723094
 H        -3.0130343474       -1.5348857759      -12.9601667398
 H        -3.4715673216       -2.6909060742      -14.2919349841
 H        -7.2482213422       -2.6997215790      -10.4051058006
 H        -6.3240311835       -1.3696696560       -9.7012435307
 H        -7.5101709236       -2.3582590461       -8.0605749088
 H        -5.7834768497       -2.5287683283       -7.8119975161
 H        -4.7206491853       -6.0033094119       -7.8129431106
 H        -4.9499120176       -6.9591341405       -6.4241802548
 H        -2.5327411541       -4.9423989364       -6.4029737885
 H        -2.5110247883       -6.5711859274       -6.9577648552
 H         1.0951234814       -6.4328729689       -3.7563345325
 H         0.9824351916       -5.1731849996       -2.6294678264
 H         2.8255455447       -4.7253841572       -4.7597563299
 H         1.8869450184       -3.4644303338       -4.1804207583
 H        -1.1806540892       -3.3500532124       -7.4282122704
 H        -1.0366206654       -1.9207890656       -8.4541577588
 H        -3.0080561680       -1.1878237668       -7.2658306635
 H        -1.7824456047       -0.3122801212       -6.6884235128
 H        -5.6176427989       -0.4007926821       -3.4226390866
 H        -4.5400858372        0.9781003333       -2.9543313573
 H        -5.6530465259       -1.2883310255       -1.0660177097
 H        -6.2648261221        0.3213568687       -1.3944264458
 H        -2.5038670776       -1.9741301126        1.5292948818
 H        -2.9256886684       -2.1548005230       -0.3631195123
 H        -3.5891699445       -4.2556175866        1.8214209867
 H        -1.9024728885       -4.2358334209        1.1833994865
 H        -6.6168709229       -3.2406602256        0.0591832980
 H        -7.4870972750       -4.7133849933        0.4369878440
 H        -8.8361147773       -4.1936695779       -1.6405609401
 H        -7.4795629305       -3.3963266085       -2.3887139076
 H       -10.1799723478        1.2302129920       -3.0142123968
 H       -11.1915489847        0.0276122000       -3.9170383149
 H        -9.7313254891        0.7087977863       -4.6487539352
 H       -10.4835585410       -3.1229084971       -2.8810995866
 H       -11.5557024414       -1.7838615308       -2.3017822487
 H       -11.1250276210       -2.9595589513       -1.1450918623
 H       -10.8038033075       -1.0253528291       -0.0778289761
 H       -10.9952851796        0.2544219885       -1.2227576247
 H        -9.4908828232        0.2750956665       -0.1608534893
 H        -5.3747778391       -7.5214898290       -0.8951045405
 H        -3.5430658230       -7.4168367165       -0.6362316593
 H        -4.3105744970       -6.7263345839       -2.0728930579
 H        -6.1390879401       -6.7248026844        1.0664890710
 H        -5.8521418601       -5.0232253385        1.6786014382
 H        -4.6477899095       -6.1421113123        1.8282850057
 H        -3.3151106504       -0.0795622747        3.0518485129
 H        -3.3676319569        1.4472202634        2.2164309915
 H        -2.4482948579        0.0266510265        1.6190619803
 H        -5.8324068767        0.8821129688        2.7571165322
 H        -6.5399775581       -0.5998779889        2.1331594940
 H        -6.3898520074        1.0354658740        1.2472426411
 H        -0.3702014361       -0.8656991747       -4.1975089055
 H        -0.9763673795       -2.1955705690       -3.4511974778
 H        -0.9400552025       -0.7590661788       -2.4853249771
 H        -1.5473106515        1.0317602469       -5.1577248744
 H        -2.4020527178        1.3159997925       -3.6337263697
 H        -3.2857779541        1.0847712257       -5.1703291858
 H         3.0452919140       -1.8354324721       -7.0617618109
 H         3.4929283941       -3.3925904713       -6.4236763784
 H         2.7290140127       -2.1404750237       -5.3438032771
 H         0.7802421508       -3.9761151135       -8.7113233444
 H         2.4809613795       -4.3493457282       -8.3906234361
 H         1.9996439655       -2.6636638672       -8.7834629155
 H        -1.5909959759       -8.4967853740       -2.9464702278
 H        -2.3106644121       -6.9711997083       -2.6510618922
 H        -0.6194708622       -6.9622726031       -2.3532831360
 H        -1.1405700102       -8.7008561698       -5.5997610463
 H         0.4119416044       -7.9344163285       -5.1607368852
 H        -0.4165545988       -7.2381554573       -6.4285506338
 H        -8.9894887187       -4.1300336351       -6.0502185918
 H        -7.6445534496       -3.0568907764       -6.0207769816
 H        -7.8950398911       -4.2638242061       -4.7657226415
 H        -8.6991680072       -6.5466729222       -6.7113834310
 H        -7.2051180257       -7.2244250106       -6.0428697027
 H        -7.3871462163       -6.9392133749       -7.7759361165
 H        -6.6627062341       -4.8487592961      -11.5373540176
 H        -6.1291360847       -4.7687862383      -13.2588505562
 H        -7.1992971266       -3.6352662193      -12.6006068005
 H        -3.1281735095       -4.4945030658      -11.2263318362
 H        -3.0305283211       -3.9944079964      -12.9534513461
 H        -4.0532398733       -5.3625811275      -12.3854558473
 H        -1.1033807286        1.5369041980      -16.4746601467
 H        -2.1899695628        2.8950056884      -16.6457454367
 H        -1.6356708347        2.0150048943      -18.0611383566
 H        -5.3896818728        1.0281972071      -16.8690714463
 H        -4.3915516859        2.4518618476      -17.5789714309
 H        -4.5805427660        2.3452421371      -15.9402649891
 H        -3.7453132618       -1.5687222341      -23.2494191928
 H        -4.1768694486       -1.4331120208      -21.4519985993
 H        -3.0672549477       -2.6008736961      -21.9092609363
 H        -1.3375944520       -0.8385091608      -23.9774686705
 H        -0.8246845718       -1.9689871065      -22.5960285135
 H        -0.1245253038       -0.3102966800      -22.8480378734
 H        -2.5959770296        4.0855352388      -27.2588063077
 H        -2.2859288838        2.3016242564      -27.6490959607
 H        -1.2154327717        3.5245727564      -28.4081267113
 H         1.0566169236        3.4032239756      -27.1551989328
 H         0.1903495173        1.9858054536      -27.4599784290
 H         0.8671779155        2.0125691133      -25.8572606360
 H         0.1657711495        8.0638610594      -20.2170585733
 H        -1.2095521394        7.8135955771      -21.4005927725
 H         0.3537906930        8.2170062128      -21.9438487885
 H         2.3152418004        5.4281001935      -20.4887368764
 H         2.2453640840        7.1881957009      -20.8780222402
 H         2.3586866735        6.1206560969      -22.0936593844
 Na       -3.8544614670       -4.2258553619       -3.5039971358
 Na       -0.1596431588        2.3712476580      -21.4306310967
