232

 C        -1.2281771567        6.2186266202      -19.6349432309
 C        -0.2803821738        5.2567697161      -20.3353311496
 O        -0.4276657753        4.0505071723      -20.1157798060
 C         0.6753074321        5.6541913313      -21.5083142159
 C        -0.0063374700        5.4336812643      -22.8995076821
 O        -0.8555636390        4.5768620254      -22.9618598941
 C         0.2185480330        6.2810067810      -24.1741348456
 C         0.1620413786        5.5340852193      -25.5357474786
 C        -1.1938041325        4.7472254838      -25.6730455842
 O        -2.1841656115        5.4101072627      -25.4471121078
 C        -1.1912756336        3.1436583261      -25.9291931298
 C        -2.0275617575        2.5830336679      -24.7891081147
 O        -1.4383483012        1.9407492682      -23.9320899232
 C        -3.4884015885        2.7546952258      -24.8710949083
 C        -4.3059308887        1.4652315299      -24.4058015612
 C        -3.9467342866        1.1250076572      -22.7650868629
 O        -4.1677369764        2.0909862078      -22.0095362536
 C        -3.5360279473       -0.3045328641      -22.1983747767
 C        -2.5674480431       -0.2374808169      -20.8839223680
 O        -1.7106757471        0.6469007329      -20.7988939922
 C        -2.4003473161       -1.3549410157      -19.8424004779
 C        -2.0729447148       -0.7769316137      -18.4064566668
 C        -3.0684986581        0.3202114504      -18.0387019579
 O        -3.9529534243        0.5242344500      -18.8399814697
 C        -3.0010265834        0.9720699251      -16.7163132868
 C        -2.6481298012       -0.2189618805      -15.5786858428
 O        -1.4800131392       -0.5460803077      -15.4627755369
 C        -3.7770444773       -0.6525398450      -14.7407683697
 C        -3.3824418481       -1.8461498946      -13.8027772272
 C        -4.3098175424       -2.2680846658      -12.7471477909
 O        -5.4003708909       -1.6906018924      -12.5899589443
 C        -3.9739319594       -3.5600886178      -11.8099924113
 C        -4.3058579140       -2.9637093188      -10.4140897624
 O        -3.5061352258       -2.9427984595       -9.5375830430
 C        -5.7805185760       -2.4815952354       -9.9794128232
 C        -6.2824080769       -2.9995835788       -8.5505336708
 C        -6.2259349961       -4.5563022428       -8.4071433317
 O        -6.0530117386       -5.1765837285       -9.4496076772
 C        -6.3442031723       -5.3397414943       -6.8894580115
 C        -4.9829640040       -5.2401477894       -6.2551543665
 O        -4.9416613767       -4.6727396457       -5.1314366198
 C        -3.7837924425       -5.9225405168       -7.0822500969
 C        -2.4687330320       -6.0555029213       -6.2981078961
 C        -2.4821149947       -7.0083972632       -5.1802011230
 O        -3.4714035588       -7.5900003027       -4.7787570767
 C        -1.0991897902       -7.2693651127       -4.4471714378
 C        -0.5602312429       -5.8376557601       -4.1016482119
 O        -1.3822252988       -5.0863639330       -3.7165697902
 C         1.0137724063       -5.3138179066       -4.0822951355
 C         1.2061045819       -3.8970062281       -4.7003176603
 C         0.8602123333       -3.9164515876       -6.1992906765
 O         0.1839697696       -4.7917926904       -6.7585329834
 C         1.1062965420       -2.6827244284       -6.8561364543
 C         0.0588843906       -1.6317163175       -6.3414366837
 O         0.1446183944       -0.9898891175       -5.3113709133
 C        -1.2247575437       -1.6466230750       -7.0934411197
 C        -2.2144197018       -0.7590638954       -6.3745900055
 C        -2.3969800038       -1.2455830738       -4.8816952270
 O        -2.2917179323       -2.4299587917       -4.6596962052
 C        -2.6850942172       -0.1568695426       -3.7465259663
 C        -3.9394644560       -0.5620180674       -2.8624241003
 O        -4.2772910424       -1.7416856084       -2.8338252068
 C        -4.5321769948        0.6385989019       -2.0362776495
 C        -5.2099489724        0.1876707896       -0.7317477056
 C        -4.0845022789       -0.0631172561        0.3086481537
 O        -2.8583390233       -0.0149722673        0.1430325613
 C        -4.5791220516       -0.6833808506        1.6641019525
 C        -4.2662391635       -2.2221368806        1.6453384014
 O        -5.1432228116       -2.9328404744        1.1195011439
 C        -2.8104826983       -2.7571175842        1.8326389771
 C        -2.9239807683       -4.3014469104        1.4716361945
 C        -3.4960909629       -4.4643500013        0.1650241060
 O        -2.9361181051       -3.9910461750       -0.8260387070
 C        -4.8162809720       -5.4824627176       -0.0659815835
 C        -5.8666316624       -4.7752606099       -0.9501343966
 O        -5.6209454971       -4.3290985712       -2.0340880148
 C        -7.2711706483       -4.4870414548       -0.3583271692
 C        -8.3897888697       -4.0534707801       -1.3958891166
 C        -8.6268567086       -2.5639311237       -1.4302967992
 O        -8.1827102260       -1.9306968941       -0.5142849094
 C        -9.4760547867       -1.7880575640       -2.4630018668
 C        -8.4307769198       -0.6244478394       -3.0862011690
 O        -7.2517948400       -0.7137443159       -2.8490743933
 C        -9.1277654013        0.2846542976       -4.1348224954
 C        -9.9219227042       -2.6976096592       -3.5694061180
 C       -10.7022927314       -1.1101225737       -1.7671576491
 C        -4.3366205380       -6.5457589164       -1.0188433127
 C        -5.3016421792       -5.9882916733        1.3055776537
 C        -3.6984239209        0.1294409209        2.7259444786
 C        -6.0626224432       -0.5633789195        2.0838718627
 C        -1.5526981779       -0.4099865229       -2.7925141494
 C        -2.7342099750        1.2675642435       -4.3228177910
 C         2.4970384439       -2.0432699231       -6.5167873617
 C         0.9399475839       -2.7499679429       -8.4072845980
 C        -1.2414669516       -7.8087059795       -2.9346732973
 C        -0.2016627699       -8.0910302389       -5.2811622778
 C        -7.4010271595       -4.5684637347       -6.0706605871
 C        -6.7870495396       -6.8479998905       -7.1260652827
 C        -4.9015982658       -4.6594580758      -12.2817836896
 C        -2.5376563378       -4.0166006088      -11.9266245394
 C        -1.6964735871        1.9185999421      -16.6867097471
 C        -4.2758359017        1.8264260597      -16.3355448648
 C        -4.9309188898       -0.9695499699      -21.9369025011
 C        -2.5697988265       -1.0062126188      -23.2280968914
 C        -2.0475743856        3.0263925573      -27.2451428790
 C         0.2051289538        2.5284874640      -26.0263991299
 C         1.3344118141        7.0118792665      -21.3783489426
 C         1.8697491730        4.6702944025      -21.4121517657
 H        -2.2749734502        6.1106167290      -20.0536830232
 H        -0.9722859658        7.2817790959      -19.7344285634
 H        -1.4627494970        6.0437362210      -18.5779926649
 H         1.1808234170        6.8800792218      -24.1628193981
 H        -0.5162717499        7.0808368225      -24.1953419910
 H         0.9925565553        4.8502206556      -25.5726492738
 H         0.2587819542        6.2754832439      -26.3922224224
 H        -3.8087652377        3.1416509021      -25.8466308409
 H        -3.8457860381        3.4666369873      -24.0674908948
 H        -4.0306277806        0.5529437862      -24.9275333527
 H        -5.3487050460        1.7762837860      -24.4113443574
 H        -1.5157317200       -1.9523450196      -20.0709056429
 H        -3.2602084901       -1.9586865168      -19.8760074383
 H        -1.0231801142       -0.3424372788      -18.3386244235
 H        -2.1114514828       -1.5661505848      -17.5785906273
 H        -4.7511264260       -0.7632858149      -15.1969753582
 H        -4.1346487132        0.0675892589      -14.0872410383
 H        -2.4251499779       -1.5911055645      -13.2798553971
 H        -2.9892056756       -2.7204592010      -14.3340984036
 H        -6.3554790892       -2.9228334504      -10.8137483199
 H        -5.9365201977       -1.4551522867       -9.9707383389
 H        -7.2177949860       -2.5259891512       -8.2455413361
 H        -5.4312224283       -2.4481574794       -7.9480283172
 H        -3.4726970958       -5.2121365784       -7.8447865964
 H        -4.0456059906       -6.8914462138       -7.6283705037
 H        -2.1572610102       -5.1046586054       -5.8903542060
 H        -1.6351477953       -6.2831193421       -7.0234230767
 H         1.6282515926       -5.9827470080       -4.7344295164
 H         1.3087363637       -5.4018606538       -3.0071182441
 H         2.1879466043       -3.5631483793       -4.4978065367
 H         0.5058549027       -3.1643325111       -4.3110720338
 H        -1.5665229117       -2.7184253043       -7.0821277194
 H        -1.1228761581       -1.3116638049       -8.1033785831
 H        -3.1478536399       -0.8200809997       -6.7811425615
 H        -1.9793258871        0.2405825752       -6.4255990617
 H        -5.2434889047        1.0825349929       -2.7385433419
 H        -3.7913736358        1.3699216733       -1.8003127394
 H        -5.7674261756       -0.7017924000       -0.8382934310
 H        -5.9092691581        0.9884364602       -0.2871465182
 H        -2.4768386656       -2.5928589830        2.8729636314
 H        -2.1007181800       -2.1023183193        1.2870842590
 H        -3.4036224995       -4.8687674803        2.2070292561
 H        -1.9259889303       -4.7161399875        1.4367850049
 H        -7.3375295637       -3.7273616404        0.4519585747
 H        -7.6436872097       -5.3325148128        0.0432748646
 H        -9.3287575748       -4.5998901791       -1.2975566317
 H        -8.0752973252       -4.3565252923       -2.4113957188
 H       -10.1741301654        0.5119969991       -3.9553412250
 H        -9.1253934629       -0.3527392660       -5.0271274493
 H        -8.5902165193        1.2176784437       -4.4029085640
 H        -9.0233318587       -3.1077718087       -4.0793471190
 H       -10.5106064872       -2.1665891356       -4.3730841418
 H       -10.5609962491       -3.4778314916       -3.2735244917
 H       -10.6402895739       -0.1676044099       -1.3350969171
 H       -10.9720794507       -1.7924419068       -0.9795964663
 H       -11.6199791734       -1.0056694858       -2.4148979140
 H        -5.1381294662       -7.2908536908       -1.1476823187
 H        -3.4185479662       -7.0144106118       -0.8122479266
 H        -4.2526204617       -6.2029577788       -2.0283782726
 H        -6.0882744899       -6.7264893783        1.3269513427
 H        -5.7073437657       -5.1399105488        1.9109976257
 H        -4.4471721200       -6.3876578451        1.7757106282
 H        -3.8381402665       -0.3074732871        3.6992510683
 H        -4.0855951626        1.1783187358        2.7525414042
 H        -2.6279707210       -0.0613876894        2.3948662834
 H        -6.3457413452        0.2717163324        2.7197646276
 H        -6.3556621196       -1.4554438744        2.6127129465
 H        -6.6441587516       -0.5699365406        1.0958288773
 H        -0.5322555546       -0.3819319347       -3.3116045114
 H        -1.7051214511       -1.3270456833       -2.1850048645
 H        -1.4463507472        0.3019495932       -1.9902091062
 H        -2.0139019530        1.6507911465       -5.0166852174
 H        -2.8344048047        2.0106899856       -3.5154927035
 H        -3.5833842906        1.2734534954       -4.9812586566
 H         2.6755711012       -1.0860336516       -6.9622908021
 H         3.3485060457       -2.6317783122       -6.8032148309
 H         2.6310246403       -1.9143527973       -5.4588274309
 H         0.1916986814       -3.4931878667       -8.7903718737
 H         1.8589747686       -3.0950176293       -8.9026905671
 H         0.6322562924       -1.7896953467       -8.8917820950
 H        -0.6613985346       -8.7413406108       -2.8311751650
 H        -2.3447336168       -7.9658110441       -3.0338767511
 H        -1.0850703122       -7.0617235156       -2.2218193344
 H        -0.4977477992       -9.1114316567       -5.1272119423
 H         0.7517903371       -7.9605804319       -4.7780132566
 H        -0.1297621873       -7.7699729054       -6.2471374336
 H        -8.3669142924       -4.7980321316       -6.4166571753
 H        -7.2004267884       -3.5177281679       -6.0782354370
 H        -7.3431288604       -4.9297483520       -4.9774301414
 H        -5.9534256663       -7.4629015681       -7.3810228381
 H        -7.5141858120       -6.8336168583       -7.8856593244
 H        -7.2006028978       -7.1742121727       -6.1659664314
 H        -4.7975579301       -5.6308446969      -11.6989366483
 H        -4.6763934790       -4.8674269877      -13.3498236163
 H        -5.9154533863       -4.2528395653      -12.2298485834
 H        -2.3583908666       -4.6621520769      -12.7290929473
 H        -2.2745902592       -4.6838168902      -11.1100223483
 H        -2.0246827574       -3.0514509208      -11.9012815204
 H        -0.9801875101        1.6413353924      -17.3688477386
 H        -1.1621139627        1.7900173605      -15.6985939289
 H        -1.9623741182        2.9495946345      -16.9391793136
 H        -5.0788976593        1.1053599768      -16.1788147801
 H        -4.3027201534        2.6034161096      -17.0970775617
 H        -3.9512903495        2.3698148635      -15.4031582555
 H        -5.4151649524       -0.9920399429      -22.9511049121
 H        -5.5300027249       -0.2947079068      -21.2143204514
 H        -4.7419721965       -1.9177384538      -21.5113859485
 H        -3.0917615840       -1.1209947817      -24.1983783890
 H        -2.3752524335       -2.0155949893      -22.8534349207
 H        -1.6958089015       -0.4464537054      -23.4141549870
 H        -2.7695897235        3.7592724390      -27.5369099592
 H        -2.6602077744        2.1522550313      -27.2156679116
 H        -1.3583666606        2.8209049582      -28.0708518413
 H         0.6060834070        2.8609829317      -26.9747488725
 H         0.0248279727        1.4557267589      -25.9454224144
 H         0.8141075312        2.9636361276      -25.2081705612
 H         1.7042159496        7.1300100119      -20.3461825565
 H         0.5648138382        7.8147594915      -21.4606060023
 H         2.1021920985        7.0809380707      -22.0667041558
 H         1.3739241104        3.6186264492      -21.5121526719
 H         2.5271307265        4.6806161528      -20.4632352827
 H         2.5249544707        4.6874872963      -22.2707764682
 Na       -3.5132090252       -3.9258991047       -3.1525233157
 Na       -1.7660369112        2.7941043132      -21.7236203175
