232

 C        -1.2688354956        6.2171954832      -19.7515125882
 C        -0.4180603270        5.2319339294      -20.4514062892
 O        -0.6212889802        4.0662670236      -20.2473839806
 C         0.6892869087        5.5978921125      -21.5076884737
 C        -0.0994682311        5.3540230633      -22.8225581136
 O        -0.9730938949        4.5134430937      -22.9799783987
 C         0.2052657417        6.2415843124      -24.1467076279
 C         0.1898403029        5.5462203210      -25.4887342637
 C        -1.2060842838        4.6883975481      -25.6008247723
 O        -2.1731439914        5.3461216218      -25.4388164156
 C        -1.2307096889        3.1323711712      -26.0495480276
 C        -2.0922474087        2.5066348114      -24.8346155836
 O        -1.4546184634        2.0785774079      -23.8854269547
 C        -3.6436305332        2.6564849147      -24.7930343502
 C        -4.3358086275        1.4276636060      -24.1646908300
 C        -3.9602386220        1.3132561020      -22.7255068822
 O        -4.0484343594        2.2770778534      -22.0058629266
 C        -3.6065594249       -0.1523923866      -22.2261127819
 C        -2.6156845404       -0.1118668262      -20.9284626288
 O        -1.7743945588        0.7257001395      -20.8669158254
 C        -2.4808049050       -1.3482549410      -19.9736742182
 C        -2.1550251386       -0.9880929128      -18.4998852184
 C        -3.1531439026        0.2162523842      -18.1440267073
 O        -4.0455513588        0.5140455009      -18.9504934287
 C        -2.9165306521        0.9962444142      -16.6015007412
 C        -2.6444520411       -0.1473813699      -15.5324748429
 O        -1.5507348178       -0.6173489060      -15.4328830408
 C        -3.6887027285       -0.6831788832      -14.6304639217
 C        -3.1494425327       -1.8944541595      -13.7700985005
 C        -4.2504030315       -2.2418162936      -12.7531639118
 O        -5.2500222295       -1.6465002716      -12.6414150059
 C        -4.0020811494       -3.4113362169      -11.7748311066
 C        -4.3910821133       -3.0608520446      -10.3040971089
 O        -3.4778255202       -2.9038570661       -9.4862689263
 C        -5.8161660513       -2.6817240847       -9.9317856830
 C        -6.0301364240       -3.1516719836       -8.5034491304
 C        -6.2564634319       -4.6216037187       -8.4969600494
 O        -6.2609981937       -5.3877966912       -9.4504881013
 C        -6.4141847657       -5.2550332971       -7.0869830515
 C        -4.9490170574       -5.2325626755       -6.2372519508
 O        -4.7513745335       -4.6264040765       -5.1998650518
 C        -3.7844521027       -5.7231550924       -7.0909778604
 C        -2.4510925161       -6.0154083628       -6.3059949984
 C        -2.4723920628       -7.0669561763       -5.1597662163
 O        -3.4699532848       -7.6405493796       -4.8100843134
 C        -0.9936479524       -7.2727854658       -4.2957844274
 C        -0.4832023300       -5.7306539971       -3.9973785555
 O        -1.2828729466       -4.8366898551       -3.6482536764
 C         0.9507037686       -5.4431865056       -4.0924981797
 C         1.2494088947       -3.9889465077       -4.6331960683
 C         0.8215026452       -3.8564385527       -6.1598198926
 O         0.3336231009       -4.8313145677       -6.6500128537
 C         1.1318071819       -2.4799923040       -6.9816098631
 C         0.0519249992       -1.6541164925       -6.3110970519
 O         0.2866754298       -1.1012111290       -5.2667467179
 C        -1.4619774395       -1.8236851029       -6.9464660555
 C        -2.4026970035       -0.7404691488       -6.3409175647
 C        -2.4683363925       -1.1827561059       -4.8714025361
 O        -2.1912737568       -2.3436591176       -4.5399853067
 C        -2.6920149043       -0.1816654211       -3.7204683080
 C        -3.9660583661       -0.5098545924       -2.8428635171
 O        -4.5407628273       -1.6322306057       -2.7701693207
 C        -4.5050277326        0.6462975647       -1.9975320719
 C        -5.1234852285        0.2164712334       -0.6765414368
 C        -4.1303013123       -0.1446442409        0.3977297050
 O        -2.9667584051        0.0009522953        0.0719134459
 C        -4.5452377805       -0.7382764590        1.8014819806
 C        -4.2151604748       -2.1898762400        1.5486461829
 O        -5.0653324960       -3.0195879380        1.2020318390
 C        -2.8508616952       -2.7802664261        1.8758629695
 C        -2.9605296365       -4.2971663142        1.5773220882
 C        -3.5255458151       -4.4912718527        0.1108627700
 O        -3.0753109056       -3.8461768573       -0.8050910576
 C        -4.7434510817       -5.4719592050       -0.1787548920
 C        -5.8782989798       -4.6414909573       -0.9865637285
 O        -5.5771623733       -4.3572464254       -2.1008304465
 C        -7.2631027722       -4.4997741040       -0.3804503181
 C        -8.3036903623       -4.0730710144       -1.4628785405
 C        -8.5788029823       -2.4674165224       -1.3289091359
 O        -8.1640339040       -1.7900381480       -0.4095774234
 C        -9.4648770649       -1.8412950456       -2.5205659360
 C        -8.5155549498       -0.7527176172       -3.1689567946
 O        -7.3485698755       -0.6468178423       -2.8718650542
 C        -9.0326659322        0.2566046225       -4.1755444041
 C        -9.9206368650       -2.7771878786       -3.5957864795
 C       -10.7255064427       -1.2345634738       -1.9304646421
 C        -4.2602658435       -6.6631374151       -1.1017146365
 C        -5.2702734441       -6.1323864858        1.1375445828
 C        -3.6832351067       -0.0042566521        2.8821668230
 C        -6.0941943982       -0.5559168752        2.0322769479
 C        -1.3991964894       -0.3258574960       -2.7616784035
 C        -2.6493540277        1.2735381884       -4.1952000442
 C         2.5621876510       -1.8969227941       -6.6584849997
 C         0.9488258169       -2.6065651058       -8.4865174057
 C        -1.2418531961       -8.0541698481       -2.9255462799
 C         0.0052392555       -8.1636124497       -5.1274809484
 C        -7.3578822865       -4.5155246981       -6.0981833695
 C        -6.8334272564       -6.7145793439       -7.3217573724
 C        -4.8462793210       -4.6683373750      -12.1992820210
 C        -2.4461135079       -3.9579043258      -11.8780892555
 C        -1.7135280773        2.0050117009      -16.5806024359
 C        -4.1556321252        1.9060020333      -16.2685194161
 C        -4.9789896236       -0.8254822628      -21.9196503514
 C        -2.7825813464       -0.8819294162      -23.2536938389
 C        -1.9936046110        2.9257559460      -27.4374058383
 C         0.1639391429        2.6342418013      -26.0455505107
 C         1.4529609827        7.0297337246      -21.3885873597
 C         1.8140132772        4.5032466044      -21.5458458610
 H        -2.3577614442        6.1467613130      -19.9251063269
 H        -0.9451820414        7.2803655598      -19.9611151325
 H        -1.2421024539        6.1257721497      -18.6348186281
 H         1.1010749399        6.8578225778      -24.1167039728
 H        -0.6020446872        7.0428316292      -24.2050948757
 H         1.1101241034        4.9850077315      -25.6128419508
 H         0.1206916001        6.2179612049      -26.2393433518
 H        -3.9959970350        2.7187167475      -25.7184532113
 H        -3.9111395499        3.5550861179      -24.2405073144
 H        -3.9589106491        0.5651659984      -24.5976607020
 H        -5.3916716131        1.5135442379      -24.2399702328
 H        -1.6517030248       -1.9966864084      -20.3247515717
 H        -3.4723517495       -1.9227843410      -19.9968489582
 H        -1.1489977874       -0.6410588791      -18.3135942850
 H        -2.3173581476       -1.8315874097      -17.8237355642
 H        -4.5932895979       -0.9881892223      -15.1617369294
 H        -4.3120859387       -0.0491535463      -13.9207737264
 H        -2.1821061976       -1.7271704931      -13.3712770196
 H        -2.8469460649       -2.7622653690      -14.4453751827
 H        -6.4674633040       -3.1387860430      -10.6896523346
 H        -5.9717090968       -1.4988216236       -9.9250702286
 H        -6.9778281792       -2.7212873168       -8.1071016496
 H        -5.2455154687       -2.7003262798       -7.8740265126
 H        -3.5347597256       -4.9669945269       -7.8585354879
 H        -4.0448988624       -6.6353148075       -7.6147473209
 H        -1.8232183644       -5.1808408978       -6.0081917394
 H        -1.8540191387       -6.4334207512       -7.0917856569
 H         1.4409041926       -6.2279744987       -4.5982590327
 H         1.2558994616       -5.4333865852       -3.0567878425
 H         2.2878971791       -3.6874460801       -4.3657265827
 H         0.5831739715       -3.3887239476       -4.0596793216
 H        -1.8289431577       -2.8794803419       -6.9172441473
 H        -1.3498568185       -1.4781779201       -8.0086965081
 H        -3.4481836575       -0.6664393280       -6.6001142056
 H        -2.0828104739        0.3074921666       -6.5163037847
 H        -5.1745350335        1.2333826546       -2.6468980513
 H        -3.7123068692        1.2896382313       -1.7113011612
 H        -5.9858003061       -0.4562588732       -0.7468780506
 H        -5.4581749370        1.1078081845       -0.2171157977
 H        -2.5571932929       -2.4797668726        2.9344303543
 H        -2.0395323075       -2.2830637315        1.3587616365
 H        -3.3681234496       -4.9366326038        2.3574937159
 H        -1.8910601969       -4.6571146285        1.4728865465
 H        -7.4085510680       -3.7140749456        0.2906824356
 H        -7.5573794844       -5.4036443685        0.1244376451
 H        -9.2353615171       -4.5702259654       -1.4277627055
 H        -7.9752614156       -4.2301723642       -2.4558491605
 H        -9.8299974904        0.9563093063       -3.8401215014
 H        -9.4498015650       -0.2020996968       -5.1680090379
 H        -8.1804061884        0.8206387899       -4.4415838595
 H        -9.0926192889       -3.3327806257       -4.1280651875
 H       -10.3970133912       -2.1972168084       -4.3283895729
 H       -10.7061071194       -3.5572207402       -3.3047828029
 H       -10.5659231939       -0.7125705779       -1.0297962854
 H       -11.2471200301       -2.1032945034       -1.6413772091
 H       -11.3596613089       -0.6325403978       -2.4963052077
 H        -5.0780787396       -7.3057444851       -1.2107625911
 H        -3.4881534460       -7.2163282206       -0.6421929357
 H        -3.9027383802       -6.5100933067       -2.1240720842
 H        -6.1346855127       -6.7209993014        0.9741373884
 H        -5.5310817735       -5.3906565980        1.9952461197
 H        -4.5087976318       -6.8312345921        1.4857051114
 H        -3.9409579696       -0.3754651489        3.8543949528
 H        -4.0104092659        1.0329789473        2.7950248820
 H        -2.6178877161       -0.2165506257        2.6755615175
 H        -6.4551399779        0.5259398923        2.0462286914
 H        -6.4174216500       -1.0263808546        2.9734388655
 H        -6.5496075880       -1.0502339539        1.1578747840
 H        -0.4792556726       -0.1653444947       -3.3200499502
 H        -1.3586558367       -1.2399606187       -2.1626168556
 H        -1.4027722050        0.3839961039       -1.9502616514
 H        -1.7049451572        1.6643765301       -4.6770385800
 H        -2.8179927724        1.9005741617       -3.3337499877
 H        -3.3263660568        1.4930876772       -5.0230042043
 H         2.8591555569       -1.0531253739       -7.2080043932
 H         3.3506697771       -2.6350036751       -6.8929244054
 H         2.7591652251       -1.6692569188       -5.5826892061
 H         0.0915277409       -3.2548543747       -8.6936192197
 H         1.7387589628       -3.1585863187       -8.9698646389
 H         0.7038708488       -1.6915645628       -9.0311074801
 H        -0.6573502829       -8.9777416749       -2.9830053460
 H        -2.2943636140       -8.2932553903       -2.9770365494
 H        -1.0308894966       -7.4243542613       -2.0547898778
 H        -0.0874940532       -9.1727759907       -4.7230197385
 H         1.0492278061       -7.8564981191       -5.0347689043
 H        -0.3072824180       -8.0863650061       -6.1600977472
 H        -8.4386206335       -4.5741018448       -6.4269442531
 H        -7.0375819163       -3.4332475234       -5.9125352987
 H        -7.3021287913       -5.0627497076       -5.1785430744
 H        -6.1862153127       -7.1515106746       -8.0830431673
 H        -7.9081896401       -6.7625580003       -7.5613614811
 H        -6.6337585930       -7.1803846650       -6.3210434529
 H        -4.7487751587       -5.3521722843      -11.4078632363
 H        -4.4492273208       -5.1345429799      -13.1983314374
 H        -5.8576880163       -4.4115584413      -12.3542076053
 H        -2.0480606658       -4.0320070042      -12.8713011310
 H        -2.5642788606       -5.0617126461      -11.7135769609
 H        -1.8164250494       -3.4831365540      -11.2124341377
 H        -1.0382065473        1.7817088582      -17.4078660500
 H        -1.1214353365        1.9183508360      -15.6529512291
 H        -2.0520275504        3.0511030907      -16.8369172736
 H        -4.9151805783        1.1610610922      -16.0082915286
 H        -4.2711315423        2.4711569588      -17.2089426098
 H        -3.8961601854        2.6564600647      -15.5601325176
 H        -5.5088310229       -0.7006310573      -22.8393835877
 H        -5.4288854478       -0.1922460258      -21.1257384459
 H        -4.8537978460       -1.9171755114      -21.4981344191
 H        -3.3929370149       -1.0898154992      -24.0598476758
 H        -2.5778414539       -1.8564860052      -22.7999656988
 H        -1.9006574803       -0.3882211607      -23.6427970619
 H        -2.5935885355        3.7815735636      -27.8746912778
 H        -2.7537432899        2.1098704266      -27.5083858321
 H        -1.1735165383        2.5928054257      -28.2027276932
 H         0.7611674178        3.0659289437      -26.8023302877
 H         0.0044320819        1.5408894911      -26.1699083456
 H         0.4936537640        2.8692100975      -25.0239013570
 H         1.6764021261        7.2052009555      -20.3398684422
 H         0.6811362842        7.8009161456      -21.6138539385
 H         2.3466793266        7.0777425794      -22.0025268906
 H         1.2968065811        3.5789607331      -21.5204782726
 H         2.4755882838        4.5803771536      -20.6597555532
 H         2.4869230171        4.4112898054      -22.4272161151
 Na       -3.5163568503       -3.9962003205       -3.2019613101
 Na       -1.7679920644        2.7993861556      -21.7452762057
