232

 C        -1.1919047054        6.3774695925      -19.8642394941
 C        -0.4276797787        5.2062814794      -20.5109487783
 O        -0.7675133998        4.0638667791      -20.3012441345
 C         0.6159486042        5.4636880658      -21.5724236438
 C        -0.1244962853        5.4025699555      -22.9125130677
 O        -0.9916465124        4.5690157360      -23.0452711789
 C         0.2049476962        6.3021006576      -24.1186066903
 C         0.1086680981        5.4252726022      -25.3531381843
 C        -1.2423962310        4.7913410719      -25.6954086726
 O        -2.3477585199        5.2597045028      -25.4636551235
 C        -1.2222367120        3.2023080633      -26.0560426814
 C        -2.1464712630        2.5760509123      -24.9269199234
 O        -1.5172961504        2.0880100349      -23.9942129962
 C        -3.6839069972        2.6187252939      -24.8336096532
 C        -4.3851733838        1.4874340452      -24.1076043256
 C        -3.9239948119        1.4635958770      -22.6351974557
 O        -3.8936950610        2.4273533336      -21.9163722303
 C        -3.6490902690       -0.0529336012      -22.1026506776
 C        -2.6163603327       -0.0669924233      -20.9519972681
 O        -1.7862684519        0.8268772134      -20.8123350973
 C        -2.6386062498       -1.3269671268      -20.1137918568
 C        -2.3375694701       -0.9545155950      -18.6738172581
 C        -3.1440177014        0.2026244938      -18.0264383108
 O        -4.0331263192        0.6407393473      -18.7116055260
 C        -2.8820743214        0.9383619394      -16.6887461961
 C        -2.5937596460       -0.1278512791      -15.5615690087
 O        -1.4479665665       -0.5960875013      -15.5694017432
 C        -3.7357761487       -0.6830802030      -14.6300040361
 C        -3.1584460032       -1.8069431501      -13.7612735328
 C        -4.1733476222       -2.2584725526      -12.7193883541
 O        -5.1795211403       -1.5671821105      -12.6840682945
 C        -3.9490684057       -3.5000064616      -11.7265805927
 C        -4.2685171402       -3.0464374938      -10.2986738752
 O        -3.4182910124       -2.9003797668       -9.4004431023
 C        -5.7391197040       -2.8137527621      -10.0347692761
 C        -5.9301126759       -3.2422549125       -8.4977165628
 C        -6.2995686630       -4.6973957172       -8.4337036076
 O        -6.4004247523       -5.3736408269       -9.4182508223
 C        -6.2698815396       -5.3566499401       -6.9801595481
 C        -4.8081808384       -5.1444915290       -6.3805028270
 O        -4.8031647656       -4.6273564971       -5.3105416870
 C        -3.6492311982       -5.7674231834       -7.1391726829
 C        -2.3192707013       -6.0930696302       -6.3174974701
 C        -2.3937840712       -7.0308062780       -5.0485003375
 O        -3.3714646512       -7.7053982871       -4.8056804757
 C        -1.0939714355       -7.2046330648       -4.2426973210
 C        -0.4370040470       -5.7599723200       -3.9134916159
 O        -1.2155306072       -4.8463429976       -3.5838612239
 C         1.0650857677       -5.4274734211       -4.0914319673
 C         1.2677600188       -3.9903285567       -4.6072863312
 C         1.0409743719       -3.9526685170       -6.1222998541
 O         0.4267823682       -4.7987779896       -6.7264634141
 C         1.1429536424       -2.5590002614       -6.9972797274
 C         0.0017355720       -1.6603492215       -6.3314796406
 O         0.1885518489       -1.0759406563       -5.2879877864
 C        -1.4212675554       -1.7202990929       -6.8757429245
 C        -2.4824107105       -0.8341935989       -6.1982694896
 C        -2.4780992297       -1.2136620088       -4.7048625461
 O        -2.2923450450       -2.3737652446       -4.4207624814
 C        -2.6590487538       -0.0997402580       -3.5551846858
 C        -3.9814906415       -0.4776598164       -2.7379070316
 O        -4.5500140674       -1.5084920894       -2.8166021125
 C        -4.5788901155        0.7256684902       -1.9314084225
 C        -5.2353075767        0.3505247367       -0.6695961944
 C        -4.1141351019       -0.1451393494        0.3761779086
 O        -2.9444159729       -0.0435688727        0.1652858629
 C        -4.5274056276       -0.7536525896        1.7725061188
 C        -4.2879962956       -2.2698553751        1.7173767955
 O        -5.1380214249       -2.9527976896        1.2297701930
 C        -2.8399728838       -2.9047010728        1.8865364041
 C        -2.8310524063       -4.3161686391        1.5038291098
 C        -3.5569184814       -4.5059492758        0.0693280450
 O        -3.1536987356       -3.7573694497       -0.8028415264
 C        -4.6687994854       -5.5725071425       -0.2167348860
 C        -5.8641364213       -4.7692506704       -1.0431029618
 O        -5.6281447048       -4.2978033273       -2.1913042064
 C        -7.1513863210       -4.4959429420       -0.4008410294
 C        -8.1277717693       -3.8785517325       -1.4291636449
 C        -8.5616630437       -2.4532390140       -1.3714760047
 O        -8.2165980323       -1.7924124282       -0.4027646151
 C        -9.4614180049       -1.8864536963       -2.5671602684
 C        -8.5292125771       -0.7328838423       -3.2043772293
 O        -7.3723069831       -0.6624640785       -2.8266853626
 C        -9.0934854907        0.2172880645       -4.2754835469
 C        -9.8111225402       -2.9468397730       -3.7128684053
 C       -10.7370204475       -1.2331913987       -1.9461360404
 C        -4.1577152429       -6.6769282409       -1.1210259442
 C        -5.2994115450       -6.2480283864        1.0196562939
 C        -3.7300913967       -0.1622894765        2.9826476848
 C        -6.0527421958       -0.5365966892        2.0032330817
 C        -1.3704146196       -0.2631862349       -2.6469605129
 C        -2.6375556677        1.3080194703       -4.1309502744
 C         2.4973825593       -1.8458325483       -6.7775501537
 C         1.0196079862       -2.6730707080       -8.5029790091
 C        -1.4017566687       -8.0579805832       -2.9784213560
 C         0.0095852505       -8.0673515092       -5.1156181488
 C        -7.3646228769       -4.4686151771       -6.1658888409
 C        -6.8579185120       -6.7473947708       -7.1947103655
 C        -4.8991099590       -4.7092626415      -12.1915927598
 C        -2.3586021346       -3.9213420888      -11.6658976619
 C        -1.6876497332        1.8946265487      -16.7090900092
 C        -4.2015566090        1.7969997298      -16.2947279620
 C        -5.0038972011       -0.7187747671      -21.8144944788
 C        -2.9639227032       -0.9407413146      -23.2456393170
 C        -1.8358388165        2.9491657331      -27.4580888980
 C         0.1550174999        2.5179026755      -26.0673591841
 C         1.3078829436        6.8696194964      -21.3950085486
 C         1.7290681989        4.3682263571      -21.6250098686
 H        -2.2563485818        6.2304018466      -19.9745767666
 H        -0.9576407002        7.3923668213      -20.2080124074
 H        -1.1034550196        6.4260972819      -18.7585977518
 H         1.1970841167        6.7024774213      -24.0552652216
 H        -0.4489006167        7.2142033090      -24.1600800407
 H         0.8289970099        4.6289494986      -25.2380085675
 H         0.3884330391        5.9625578697      -26.2471571659
 H        -4.2484173263        2.7016800863      -25.8460732760
 H        -3.8822682786        3.4718890838      -24.2861269037
 H        -4.2997298854        0.5152472688      -24.5644444879
 H        -5.4441364820        1.7369188556      -24.0396773521
 H        -1.7738416458       -1.9916902627      -20.3797522638
 H        -3.6350029280       -1.8858054103      -20.2008005243
 H        -1.3213586612       -0.7143360155      -18.5623184001
 H        -2.4854821367       -1.8074869653      -18.0937612830
 H        -4.6957984603       -0.9797766020      -15.1123362221
 H        -4.2680496722        0.0734187384      -13.9170837496
 H        -2.1636366369       -1.5116288806      -13.4667962957
 H        -2.8292414139       -2.6218828417      -14.4187146698
 H        -6.4182280978       -3.3473973752      -10.7534617603
 H        -5.9261181691       -1.6759617280      -10.1073732276
 H        -6.7713269789       -2.6368048415       -8.1138068501
 H        -5.1089632626       -2.9487004187       -7.9186217194
 H        -3.2665105495       -5.1110460542       -7.9603878731
 H        -4.0435063369       -6.6183683294       -7.6349547005
 H        -1.9787926886       -5.1419200407       -5.8542894749
 H        -1.5239731952       -6.2358710590       -7.0022480709
 H         1.4799903377       -6.1120645434       -4.7825050788
 H         1.6125393243       -5.4859887299       -3.1763022814
 H         2.3753384546       -3.8286776569       -4.4601352460
 H         0.7358869522       -3.2058863994       -4.0302935672
 H        -1.6253172383       -2.7625369820       -6.5889664547
 H        -1.5996774040       -1.6308517621       -7.9835347673
 H        -3.6076264850       -1.0357772200       -6.5308188157
 H        -2.4600687388        0.3072403607       -6.4411570437
 H        -5.1555081313        1.2562059363       -2.6947272826
 H        -3.7456305644        1.4295844401       -1.6523637691
 H        -5.7589218811       -0.6189039485       -0.8885210377
 H        -5.9122956031        1.0199692028       -0.2608291580
 H        -2.3239559532       -2.7114796903        2.8443980140
 H        -2.2278495715       -2.1879880909        1.2870973279
 H        -3.5186156370       -4.7991262567        2.2936505899
 H        -1.8911090733       -4.9151062977        1.6199241081
 H        -7.1326018102       -3.7945998878        0.3964112604
 H        -7.6876820015       -5.4561017459       -0.0067309197
 H        -9.0868295807       -4.3843544116       -1.3451661051
 H        -7.8575290296       -4.0589610639       -2.4412028879
 H        -9.5708474652        1.0410273692       -3.6862780503
 H        -9.8836828283       -0.1117470909       -4.9320831572
 H        -8.2836873887        0.6986032248       -4.8744437630
 H        -9.0185135477       -3.5175563238       -4.1913014619
 H       -10.4234099422       -2.4975358862       -4.4836763239
 H       -10.4824935044       -3.7224567446       -3.2197263948
 H       -10.5947211745       -1.0295226326       -0.8610851989
 H       -11.6430325450       -1.7883526190       -2.0635301984
 H       -10.9474146015       -0.2954368586       -2.3449059397
 H        -4.9244948100       -7.3178545985       -1.4841872853
 H        -3.4119535185       -7.3297544134       -0.6285012991
 H        -3.5936679200       -6.3090672888       -1.9659062585
 H        -6.1503715407       -6.8460893909        0.5523063560
 H        -5.6434361815       -5.6026740049        1.7841363403
 H        -4.6571339659       -7.0700873312        1.4745564578
 H        -4.1151474167       -0.7646056411        3.8414425137
 H        -3.9432817611        0.8687687290        3.0857556794
 H        -2.7394469852       -0.4005707711        2.8428047120
 H        -6.3805556955        0.4259489522        1.5289066113
 H        -6.1311472048       -0.3672180051        3.1094707546
 H        -6.6797328355       -1.2873600666        1.6218467517
 H        -0.5056581428        0.0199325946       -3.1513454299
 H        -1.2575489869       -1.2577063769       -2.3179775314
 H        -1.4559293558        0.2348062281       -1.6665238584
 H        -1.6808423173        1.5246766876       -4.6295508666
 H        -2.6754288081        2.0569380486       -3.3399112590
 H        -3.3411836094        1.5419845549       -4.9650987558
 H         2.7318059577       -1.0580714348       -7.5315980380
 H         3.3599399066       -2.5233111254       -6.8890259881
 H         2.6703587653       -1.3868819561       -5.8037899708
 H         0.0942256561       -3.0992170436       -8.7835399790
 H         1.7228038298       -3.3218900460       -8.9861624874
 H         0.9744681848       -1.7235355363       -8.9584120410
 H        -0.5898810781       -8.7402979392       -3.0277921046
 H        -2.3441748935       -8.5479019653       -2.9547922428
 H        -1.1670209979       -7.3629278889       -2.1312757031
 H        -0.1378003654       -9.1214116327       -4.8657940484
 H         1.0460629398       -7.7923169711       -4.9189638723
 H        -0.2967780310       -7.8168940369       -6.1996916983
 H        -8.2479566754       -4.3848836320       -6.8911622390
 H        -7.0039705643       -3.4307300684       -5.9249871995
 H        -7.7418402640       -4.9839920713       -5.3040962088
 H        -6.5912337948       -6.9861561687       -8.2672220287
 H        -7.9900509679       -6.6075750490       -7.0564416935
 H        -6.4939626687       -7.5121357069       -6.5193898907
 H        -5.0219488782       -5.3308311712      -11.3183571726
 H        -4.5864417299       -5.1935261752      -13.0683669454
 H        -5.8630136351       -4.2448573637      -12.4348967045
 H        -1.7890175455       -3.4497696949      -12.4997666615
 H        -2.2463538041       -4.9277041008      -11.9588370943
 H        -1.9043635664       -3.6966962908      -10.6964616389
 H        -0.8570963046        1.4985161888      -17.4550047558
 H        -1.2737014032        1.9494163075      -15.7132318083
 H        -1.9256353510        2.8835642689      -17.1020035653
 H        -4.8784437830        1.0075355090      -16.0730521735
 H        -4.4343006513        2.3886061067      -17.1462578203
 H        -3.9048377434        2.4992609683      -15.5556722350
 H        -5.4896468273       -0.4372443601      -22.7307793394
 H        -5.4839882339       -0.3608658634      -20.9260842418
 H        -4.8386689601       -1.8210893073      -21.6723906784
 H        -3.7304054825       -1.2277797910      -23.9450997793
 H        -2.4783715355       -1.8073938178      -22.8718462987
 H        -2.2809359573       -0.3149651546      -23.8456527856
 H        -2.5023814688        3.7995783231      -27.8296375769
 H        -2.5137806330        2.0293421259      -27.6913178895
 H        -1.0005258196        2.8255225041      -28.1564582661
 H         0.8430387754        3.1153213226      -26.7469978639
 H         0.0015916343        1.5598305724      -26.5654218038
 H         0.4705206090        2.4052584801      -25.0520553556
 H         1.5508563447        7.0308425623      -20.3485177448
 H         0.5812068651        7.6023230378      -21.6735952198
 H         2.2729066999        6.9364243900      -22.0251777404
 H         1.3095631550        3.4041598230      -21.5945283660
 H         2.3563563847        4.5622666770      -20.8160395300
 H         2.4233329182        4.3170545866      -22.4846769982
 Na       -3.4974339561       -3.9595593809       -3.2532951347
 Na       -1.7981681141        2.7680843673      -21.7026463944
