232

 C        -1.1015672410        6.4725743097      -19.9418118568
 C        -0.4699862956        5.2121545742      -20.5101873069
 O        -0.9069385234        4.1008077036      -20.1486510672
 C         0.5843874920        5.4192034756      -21.5735914079
 C        -0.2067005871        5.4254351033      -23.0609917667
 O        -1.1003271433        4.5990947757      -23.1770630793
 C         0.1398837836        6.3116331436      -24.1776969231
 C         0.0783746585        5.3419372466      -25.4129249576
 C        -1.3225416615        4.7036750286      -25.5755333947
 O        -2.3839750838        5.3141365907      -25.5990784161
 C        -1.2901159316        3.1795499796      -26.0674190885
 C        -2.1544501875        2.5274878524      -24.9567246840
 O        -1.5962145660        1.9413033230      -24.0368369114
 C        -3.6494144745        2.7995610190      -25.0216467105
 C        -4.4377770207        1.7516507120      -24.1530018920
 C        -3.9625144000        1.4589449025      -22.6757370574
 O        -3.8387287236        2.4120140627      -21.8859482077
 C        -3.7218681370        0.0567473905      -22.1751338555
 C        -2.6908125711       -0.0431503907      -20.9073768121
 O        -1.7663917580        0.7552426900      -20.6663857696
 C        -2.7248654633       -1.2554445063      -19.9850077642
 C        -2.3059556852       -0.8985468834      -18.5336206851
 C        -3.2496233746        0.3036322057      -18.0641988393
 O        -4.1762700545        0.7511561925      -18.6834661498
 C        -2.8908412116        0.8577326551      -16.6736605416
 C        -2.5295630313       -0.2160308651      -15.6921329456
 O        -1.3778770055       -0.6452159314      -15.6123432869
 C        -3.5191457428       -0.6872122494      -14.7389956420
 C        -3.1317783210       -1.7816627319      -13.7689848402
 C        -4.0839975973       -2.2279899958      -12.7027365782
 O        -5.2215349653       -1.6983359605      -12.4825561055
 C        -3.8054270384       -3.4682428052      -11.7753471895
 C        -4.1644998551       -3.0127393265      -10.3204454768
 O        -3.3563151257       -2.9040234055       -9.4316162808
 C        -5.6910944856       -2.7914019214      -10.0100274745
 C        -6.0247800324       -3.1373475298       -8.4587449012
 C        -6.1726302711       -4.7079979779       -8.4644670612
 O        -6.5440070078       -5.3511788253       -9.4462013289
 C        -6.3141619306       -5.4129729166       -7.0624567070
 C        -4.8856401363       -5.3394719762       -6.3200671005
 O        -4.6619397211       -4.5781543475       -5.3828284987
 C        -3.6032006273       -5.9442530986       -7.0438240742
 C        -2.3209757707       -5.9752077820       -6.2376944895
 C        -2.4001803277       -6.9730650531       -5.1190082969
 O        -3.3306254838       -7.7044401933       -4.8586955304
 C        -0.9594917325       -7.1425787960       -4.2305737164
 C        -0.4600484547       -5.7699235607       -3.9715307246
 O        -1.1743676548       -4.9641975919       -3.4367752087
 C         1.1497276928       -5.3959956160       -4.1244915341
 C         1.3678512185       -3.9565786126       -4.7677959240
 C         1.0171993898       -3.8924139122       -6.2052894637
 O         0.5653674439       -4.8755910821       -6.7926129874
 C         1.0792370747       -2.5112512026       -6.9627438891
 C        -0.0936144165       -1.6716961671       -6.2827421973
 O         0.1629887427       -0.9572532057       -5.3054014918
 C        -1.4362337483       -1.7543331518       -6.9737397754
 C        -2.4045709619       -0.9976911536       -6.0875816669
 C        -2.4326326648       -1.2068518297       -4.5555235809
 O        -2.4580994275       -2.3775171667       -4.2354732471
 C        -2.5081071777       -0.0755758306       -3.4885492691
 C        -3.9615410338       -0.3231180135       -2.7933839804
 O        -4.4375913964       -1.4103567923       -2.8020862170
 C        -4.6070124591        0.7558547194       -1.8619406563
 C        -5.1381913291        0.2559502685       -0.5524647722
 C        -4.0995102154       -0.1506844225        0.4660398983
 O        -2.9220627514       -0.0390345573        0.1798658699
 C        -4.6032552806       -0.7058869432        1.8914659041
 C        -4.3310899722       -2.2653130300        1.5796462475
 O        -5.2091209567       -3.0884195737        1.3315171654
 C        -2.9678399714       -2.9509311280        1.8091920245
 C        -2.9136524502       -4.3985766966        1.3611637898
 C        -3.6216349521       -4.5003990950        0.0180828644
 O        -3.1441228666       -3.7745867327       -0.8283148325
 C        -4.7153023381       -5.6482922179       -0.3272796007
 C        -5.7401128766       -4.7907417955       -1.0653194992
 O        -5.4939206371       -4.3991355447       -2.2201079761
 C        -7.1171166900       -4.4760515489       -0.4451388951
 C        -8.1501233848       -4.0110265904       -1.4973035042
 C        -8.5515773380       -2.4824389274       -1.3830228629
 O        -8.3747675098       -1.7092784229       -0.4783598373
 C        -9.3803255387       -1.8477393888       -2.5430229390
 C        -8.5234285727       -0.7321028800       -3.2299068558
 O        -7.3765459252       -0.6132573098       -2.8699215469
 C        -9.1933730793        0.1194147728       -4.2665310810
 C        -9.6661208437       -2.9140152496       -3.5870246263
 C       -10.6947850178       -1.2653414435       -2.0153746387
 C        -4.0079809884       -6.6202851593       -1.2461154382
 C        -5.3266764821       -6.2758247552        0.9406918834
 C        -3.7333666654       -0.2099154646        3.0415087030
 C        -6.1392630871       -0.4962153866        2.1290205891
 C        -1.4491480488       -0.2658681041       -2.4800498324
 C        -2.6452330429        1.3093742166       -4.0917493740
 C         2.5081735723       -1.7852083789       -6.6964028344
 C         0.9681515942       -2.8787236959       -8.4171172050
 C        -1.4209847863       -7.9032662830       -2.9299020222
 C        -0.0912093015       -7.9944741156       -5.1957829806
 C        -7.2608157780       -4.4808817404       -6.2311573007
 C        -6.7839335953       -6.9214903131       -6.8935592166
 C        -4.7221824199       -4.5735798937      -12.1857166420
 C        -2.3533322802       -3.9655448358      -11.6677158111
 C        -1.6223015057        1.7501017566      -16.9232251682
 C        -4.2169921140        1.6515269543      -16.2916546165
 C        -5.0914697194       -0.5432224171      -21.6701515034
 C        -3.0571196688       -0.9396565637      -23.2392437962
 C        -1.8433242112        3.1094434186      -27.5390312136
 C         0.1281952348        2.3820390753      -26.0634731592
 C         1.3171115383        6.8378092960      -21.3938512645
 C         1.6176745066        4.2703922922      -21.6346598750
 H        -2.1808351135        6.3739951587      -19.8368022252
 H        -0.9526773956        7.3827891677      -20.4379603089
 H        -0.7987647710        6.6588708015      -18.9380725121
 H         1.1428513925        6.7299204316      -23.9318960029
 H        -0.5227110024        7.1294517143      -24.2387145609
 H         0.8777892780        4.5931802320      -25.3251171525
 H         0.1561394417        5.8888586506      -26.4652858851
 H        -4.0886415569        2.5742745215      -26.0773545325
 H        -3.7507583689        3.9317095205      -24.8283104401
 H        -4.5107237721        0.7797731657      -24.7448290562
 H        -5.5000316619        2.0829996987      -23.9659782209
 H        -2.0016358210       -1.9633721352      -20.4394839163
 H        -3.6787794781       -1.6886642211      -19.8967493911
 H        -1.2695014011       -0.6652850358      -18.3047728709
 H        -2.5725988272       -1.7222133929      -17.8914632806
 H        -4.5421344176       -0.8752067250      -15.1357326983
 H        -3.7943789101        0.1956942648      -14.1724789425
 H        -2.1459872662       -1.4501800119      -13.3272794179
 H        -2.7220317017       -2.5852817886      -14.3023504018
 H        -6.3954819627       -3.4532243223      -10.5573833374
 H        -5.8997454282       -1.8310518213      -10.2581130639
 H        -6.8758834553       -2.5704972549       -8.1537410070
 H        -5.2179803168       -2.9011537245       -7.7428558688
 H        -3.3661397294       -5.2491940196       -7.8487423578
 H        -3.7414021801       -6.9150152672       -7.5709809658
 H        -1.9752633643       -5.0148590936       -5.8324039197
 H        -1.4444011743       -6.1614760417       -6.9335628685
 H         1.6655110560       -6.2170075522       -4.6844517909
 H         1.6316708546       -5.3231020336       -3.1290188378
 H         2.3955526843       -3.6120640445       -4.6102894086
 H         0.7118268852       -3.2065986191       -4.2007183738
 H        -1.6420928914       -2.8130903590       -7.1444723776
 H        -1.4948783511       -1.2496477089       -7.9085867234
 H        -3.4881444472       -0.9915934786       -6.5073154592
 H        -2.1536556636        0.0756634508       -6.2634695871
 H        -5.4312944433        1.1372026747       -2.4914418051
 H        -3.9255254573        1.6545382629       -1.6960979532
 H        -5.7688437740       -0.5958444419       -0.7679074559
 H        -5.8121953179        1.0181201053       -0.0210163131
 H        -2.6820217924       -2.7660296515        2.8156488737
 H        -2.1434496896       -2.3072334715        1.3522647488
 H        -3.3909009938       -5.0831013422        2.1115682725
 H        -1.9214878709       -4.8215387088        1.2590449934
 H        -7.0985940725       -3.5575869025        0.2962404402
 H        -7.6131177800       -5.2972926929        0.1049581622
 H        -9.0647108260       -4.6498798671       -1.6061908393
 H        -7.6711131955       -4.0191441666       -2.5089974061
 H        -9.3901603605        1.1170661583       -3.8809385373
 H       -10.1343685860       -0.2279354216       -4.5205166180
 H        -8.6046715686        0.2600767277       -5.2166074823
 H        -8.8077523970       -3.3751294819       -4.0410571278
 H       -10.3885173606       -2.6256300059       -4.4279648749
 H       -10.0980208726       -3.7088889302       -3.0771479158
 H       -10.7383479104       -1.1784697320       -0.9284795516
 H       -11.6609579242       -1.6382202148       -2.4071059573
 H       -10.6939855782       -0.1717998952       -2.3724148543
 H        -4.6088290050       -7.3965270798       -1.8173599304
 H        -3.2382120129       -7.2114304802       -0.6980529068
 H        -3.3858719489       -6.0622434128       -1.9225334891
 H        -6.0132784585       -7.1496958758        0.6756232654
 H        -5.7772157485       -5.5301778896        1.5640678639
 H        -4.5486226423       -6.7565759761        1.5544285810
 H        -3.9142690715       -0.8447641789        3.8954042044
 H        -3.9441985894        0.8310388172        3.1772403543
 H        -2.7341234157       -0.3391602970        2.6610102356
 H        -6.4600562041        0.3189687820        1.5239950318
 H        -6.2053694434       -0.2132709682        3.1575839833
 H        -6.8049334542       -1.3142481013        1.8422383241
 H        -0.4927920644        0.1320760920       -2.8232803682
 H        -1.2207330565       -1.2810743953       -2.2416248807
 H        -1.7350707070        0.1268660017       -1.5298223845
 H        -1.9017939783        1.5600655218       -4.8090221783
 H        -2.4961598016        2.1087962044       -3.3397985463
 H        -3.5963758521        1.4621400912       -4.6429192427
 H         2.6377968116       -0.9592613747       -7.4642560006
 H         3.4208142897       -2.3611426984       -6.8231703179
 H         2.6304365359       -1.2803209644       -5.7599132615
 H         0.0396398875       -3.3299529422       -8.6719689877
 H         1.6718237547       -3.6191265225       -8.7078561030
 H         1.0044787080       -2.0506824131       -9.0729260754
 H        -0.6201256467       -8.5330777419       -2.5312354360
 H        -2.3002118813       -8.5380077466       -3.1864536747
 H        -1.5927017650       -7.0650879564       -2.2931640069
 H        -0.7736124133       -8.8235363102       -5.5083262261
 H         0.8348481793       -8.4211451605       -4.7224460253
 H         0.0845321311       -7.2922495604       -6.0128574512
 H        -8.1118277136       -4.1280920703       -6.7514315288
 H        -6.6905159343       -3.6575506279       -5.8949685722
 H        -7.5942272202       -5.1190496083       -5.3420226014
 H        -6.5946149637       -7.4223026718       -7.8662047170
 H        -7.8218844408       -6.9253863653       -6.5384476449
 H        -6.1761178043       -7.4051084730       -6.1214417904
 H        -5.0342444052       -5.1780398062      -11.2947031856
 H        -4.3835489989       -5.0858641721      -13.0156456176
 H        -5.6051511233       -4.0342385298      -12.5540042229
 H        -1.6757906958       -3.2237251814      -12.1159490957
 H        -2.1140419580       -4.8599031124      -12.1817289730
 H        -2.1178890834       -3.9927676522      -10.5426833923
 H        -0.8559590370        1.0939548368      -17.2888790317
 H        -1.2854636627        2.3309338556      -16.0143913997
 H        -1.7784332227        2.4372616530      -17.7432016810
 H        -4.9781666083        0.9299714830      -16.3814954933
 H        -4.2587256348        2.3680612933      -17.0497417879
 H        -3.9881770123        2.2165857613      -15.3967027633
 H        -5.8750456749       -0.1911756237      -22.3433299271
 H        -5.2370482520       -0.3289614119      -20.6183563849
 H        -4.9346354357       -1.5264289084      -21.6474189829
 H        -3.8131911124       -1.4166171782      -23.9414850750
 H        -2.4359872332       -1.6789588138      -22.7606754341
 H        -2.4283908841       -0.3420983637      -23.8822245118
 H        -2.7565861368        3.6694695168      -27.6516661196
 H        -2.1002221276        2.0881356560      -27.8779337360
 H        -1.1265079302        3.4224025305      -28.2569007231
 H         0.7878477401        3.0427602520      -26.6972532446
 H         0.0769485830        1.4404960172      -26.5906482403
 H         0.4169616148        2.2896531716      -25.0075368911
 H         1.6668418928        6.9262861566      -20.3450243759
 H         0.6260635791        7.6446740654      -21.6693741493
 H         2.1967397074        6.8485750260      -22.0214468983
 H         1.0933268095        3.2942378416      -21.7279264269
 H         2.3813075600        4.2859773013      -20.8709970891
 H         2.2318288973        4.2338656563      -22.4995715611
 Na       -3.5277361615       -3.8788129757       -3.2588970863
 Na       -1.7486383814        2.7847510118      -21.7110858300
