232

 C        -1.1425563297        6.5620827471      -19.8643683408
 C        -0.6188334239        5.3179927127      -20.4578204356
 O        -0.9122057507        4.2345080999      -20.0329976700
 C         0.5281929892        5.4518593338      -21.6939363194
 C        -0.2937057364        5.3781654350      -23.0450441917
 O        -1.1869059010        4.5881493709      -23.1426901868
 C         0.0879282348        6.2302578619      -24.2205155543
 C         0.0995653361        5.4366846192      -25.5898598532
 C        -1.2311346307        4.6674116585      -25.7566045977
 O        -2.2451536000        5.3048742812      -25.7168333272
 C        -1.3200299852        3.1472182320      -26.1116993723
 C        -2.1977815344        2.3938502310      -24.9999546572
 O        -1.7491332558        1.7508410523      -24.0543185912
 C        -3.6737372753        2.7703589030      -25.0583898055
 C        -4.5676932122        1.8825036326      -24.1421142507
 C        -3.9026106413        1.5473295921      -22.7094125696
 O        -3.9079829164        2.4718126190      -21.9230535670
 C        -3.6571832155        0.0383964416      -22.1120670090
 C        -2.6964190074       -0.0669366112      -20.8819448741
 O        -1.8514190956        0.7619256332      -20.7082438166
 C        -2.8591954061       -1.3009052521      -19.9224671364
 C        -2.4484951716       -0.8658416819      -18.5197324182
 C        -3.3392512940        0.3062245643      -18.0881166596
 O        -4.2406624769        0.6623920568      -18.8680644045
 C        -2.8919864903        0.8929147714      -16.7276977926
 C        -2.3953925783       -0.2784454422      -15.6505100917
 O        -1.3000096921       -0.7385085718      -15.7109702140
 C        -3.5207800282       -0.7228355109      -14.6019399117
 C        -3.0630250418       -1.8544057845      -13.6704957866
 C        -4.0289586614       -2.2041021751      -12.5894830427
 O        -5.1307466259       -1.7166852557      -12.4998671882
 C        -3.7165633017       -3.3865397244      -11.6690386525
 C        -4.1544703111       -2.9930819262      -10.2363043465
 O        -3.2851375563       -2.8700324055       -9.3945107979
 C        -5.6409208098       -2.7167601608       -9.9126684034
 C        -6.0699997244       -3.3053913377       -8.5871285707
 C        -6.3083910754       -4.8173455891       -8.4213354212
 O        -6.5687670170       -5.3530132006       -9.4727362620
 C        -6.2152194448       -5.4060870820       -6.8782544440
 C        -4.7824063716       -5.2666638766       -6.3551022197
 O        -4.5723340895       -4.5693308850       -5.3534457174
 C        -3.6715881084       -6.0888906763       -7.0699258765
 C        -2.4513991867       -5.8477767754       -6.2044493379
 C        -2.3403108072       -6.9257002272       -5.1446975711
 O        -3.2985270928       -7.6396377672       -4.9408476196
 C        -0.9751979441       -7.1253164273       -4.3637924159
 C        -0.4233905689       -5.7080331703       -3.8908168966
 O        -1.0767810252       -4.9065339638       -3.2949659999
 C         1.0426774786       -5.3721766349       -4.0875161110
 C         1.3884612376       -3.9843923123       -4.7050975502
 C         0.9677892104       -3.9298596844       -6.2040732491
 O         0.7093980834       -4.9267852358       -6.8534756919
 C         1.0960242687       -2.5312615981       -6.9775359279
 C        -0.0256168297       -1.6525092861       -6.3773616001
 O         0.1343402843       -0.9438807772       -5.4063377580
 C        -1.4431672641       -1.7077924444       -6.9298944824
 C        -2.4428554173       -0.8391551293       -6.1053577183
 C        -2.4128444050       -1.1860309572       -4.5362529031
 O        -2.4006000420       -2.3520095929       -4.1035130230
 C        -2.5330076007       -0.0802120735       -3.4906741663
 C        -3.8831900128       -0.3630241591       -2.6504654418
 O        -4.4642117734       -1.4681728980       -2.7327497122
 C        -4.5671051219        0.7768028150       -1.8920368429
 C        -5.1667912961        0.2104156376       -0.5704901598
 C        -4.1257609676       -0.1334111285        0.5237069693
 O        -2.9075883565       -0.0647034556        0.4016746733
 C        -4.5850364680       -0.8228131558        1.8963583308
 C        -4.4247281340       -2.3586073911        1.7051272480
 O        -5.3972994245       -3.0851572511        1.3969632516
 C        -2.9930611500       -2.8946052891        1.8452539671
 C        -3.0077471770       -4.3797666057        1.3996662504
 C        -3.5294065144       -4.5282426460       -0.0352507998
 O        -3.1875496639       -3.8586645514       -0.9835657132
 C        -4.6600120364       -5.5480493515       -0.3486331350
 C        -5.7498777324       -4.8534550384       -1.2056687297
 O        -5.5080874703       -4.4940377848       -2.2934961645
 C        -7.0845612509       -4.3952883338       -0.5384621833
 C        -8.1514685188       -3.9057381913       -1.5393379713
 C        -8.5995999139       -2.4837726815       -1.3552616077
 O        -8.3455128354       -1.8730891690       -0.3427802511
 C        -9.4062160378       -1.8778945863       -2.5715965529
 C        -8.4796141522       -0.7541805827       -3.2422455309
 O        -7.3330436516       -0.4491532750       -3.0111288616
 C        -9.2302344434        0.0549381064       -4.2709120220
 C        -9.7124720158       -2.9676196407       -3.7359260639
 C       -10.7193906846       -1.2737963890       -2.0531562951
 C        -3.9549167872       -6.5648533769       -1.3084367727
 C        -5.2397454876       -6.3404105674        0.8818732039
 C        -3.7043891593       -0.2773214456        2.9916691455
 C        -6.0877555165       -0.5423859318        2.2578572353
 C        -1.4798771818       -0.2291536353       -2.3729857316
 C        -2.5661677213        1.4088634703       -4.1046401787
 C         2.4038810760       -1.8402325554       -6.5895731786
 C         0.8831032776       -2.9107002676       -8.4114935501
 C        -1.2397107087       -7.7782087065       -2.9146386333
 C        -0.1099963799       -8.0676521944       -5.2953076387
 C        -7.1703230850       -4.5416790993       -6.0747902796
 C        -6.6104200491       -6.9312863525       -6.7940419077
 C        -4.6504228894       -4.6276180567      -12.2543752143
 C        -2.1895153087       -3.9501044682      -11.8228383258
 C        -1.6309517699        1.7647789198      -17.0729096747
 C        -4.0975648170        1.7126713337      -16.1351643174
 C        -5.1805172524       -0.3321662361      -21.6044494782
 C        -3.1819729084       -0.8688971418      -23.2130054606
 C        -1.9014858389        3.2436068900      -27.4921489177
 C         0.0533676176        2.4163072230      -26.0852321697
 C         1.3905143533        6.6955705945      -21.4918529786
 C         1.4322886040        4.2158624391      -21.6581146359
 H        -2.0939705238        6.4904371754      -19.3774629218
 H        -1.2548355873        7.3901497380      -20.5545475592
 H        -0.4722014165        6.9257333076      -19.1249136454
 H         1.0307085941        6.7911054797      -24.0426485484
 H        -0.7085613329        6.9612392220      -24.2670495148
 H         1.0103717549        4.7425653278      -25.6038267795
 H         0.1699650002        6.1704508083      -26.4288948661
 H        -4.1558133521        2.7019363871      -25.9810808777
 H        -3.5737872867        3.9429695811      -24.7806737340
 H        -4.8513969801        0.9296922234      -24.6824044504
 H        -5.5531810202        2.3659476352      -23.8484796543
 H        -2.1400356135       -1.9757064632      -20.2922256808
 H        -3.8073955374       -1.7447424765      -19.9496480287
 H        -1.4829628655       -0.2849301636      -18.6150672328
 H        -2.3015167146       -1.6336383248      -17.6873377107
 H        -4.3255852308       -1.1742677531      -15.1760554498
 H        -4.0506284483        0.0543607303      -14.1153620788
 H        -2.0670470223       -1.5967261942      -13.2620057549
 H        -2.6876871930       -2.6243356936      -14.3437778122
 H        -6.3395638009       -3.0746040501      -10.5828467221
 H        -5.7165123048       -1.6479417587       -9.8243883476
 H        -6.9124669255       -2.6772915666       -8.3603482681
 H        -5.3123908947       -3.1254892700       -7.7326600450
 H        -3.5190237665       -5.8700337281       -8.1207090763
 H        -3.9367701835       -7.1931755494       -7.0309996825
 H        -2.3106686040       -4.8303260737       -5.8147859135
 H        -1.4752073957       -5.9056148174       -6.8098412294
 H         1.4590563552       -6.1686741658       -4.7888123081
 H         1.6431639309       -5.4862037798       -3.1236677261
 H         2.4499577635       -3.8496516132       -4.5564793964
 H         0.8718988299       -3.2013700190       -4.1395740427
 H        -1.8828659262       -2.7066831048       -6.8646932627
 H        -1.5366280380       -1.4246097890       -7.9445004780
 H        -3.3596697839       -1.0659718860       -6.5218345399
 H        -2.3801596587        0.1951764183       -6.2223546686
 H        -5.3659449935        1.1234609044       -2.6036578965
 H        -3.9379207543        1.6356417694       -1.7247155937
 H        -5.8517263402       -0.6226486596       -0.7545763323
 H        -5.7915332923        1.0178316140       -0.0114510665
 H        -2.5033243036       -2.5682830299        2.7769671456
 H        -2.3286017731       -2.3141486953        1.2130380548
 H        -3.4955973930       -5.0446810401        2.0338659642
 H        -1.9958386906       -4.7535423264        1.3315868941
 H        -6.7902386339       -3.5659776649        0.2097172312
 H        -7.6328449375       -5.0831405376        0.0169250776
 H        -9.0898747598       -4.5406473736       -1.4756419625
 H        -7.7786848936       -4.0355028458       -2.6197482810
 H        -9.1889707547        1.1133522735       -4.2666132121
 H       -10.3070345250       -0.2464410135       -4.3513704028
 H        -8.8226699399       -0.2382138710       -5.1882964380
 H        -8.7391011596       -3.2528460617       -4.1575769743
 H       -10.2893309957       -2.5574006209       -4.5447934455
 H       -10.0866010581       -3.9230455092       -3.4698988389
 H       -10.7752987665       -1.3823955685       -0.9556271856
 H       -11.6828038058       -1.6704557543       -2.5150368512
 H       -10.8141022012       -0.1408058166       -2.2465494677
 H        -4.6784066923       -7.3450828137       -1.6682606415
 H        -3.1821772537       -7.1480673850       -0.8016287913
 H        -3.4028118584       -6.1078482506       -2.1722208111
 H        -5.8007746295       -7.1808016895        0.6219521760
 H        -5.7240798257       -5.6314410525        1.6364851507
 H        -4.4365281082       -6.7537603450        1.4297643363
 H        -3.7980498075       -0.8876358231        3.8381759494
 H        -4.1526092080        0.7265010474        3.0626457913
 H        -2.6391763420       -0.1105765847        2.6190864151
 H        -6.4071929879        0.3768878201        1.8267634441
 H        -6.0938812087       -0.5658828390        3.3022784842
 H        -6.7890054946       -1.2801041272        1.8099056792
 H        -0.4755857337        0.0984926905       -2.7578912295
 H        -1.2297002511       -1.2407142518       -1.9763079394
 H        -1.7839463064        0.3132905265       -1.5076785258
 H        -1.7077198583        1.5395133088       -4.7788870400
 H        -2.2792341203        2.1572491289       -3.3722801443
 H        -3.4555382386        1.7812287423       -4.5929502562
 H         2.4397285838       -0.9594847099       -7.1779524713
 H         3.3710079644       -2.2912225039       -6.7354165957
 H         2.3967202456       -1.4349788443       -5.5735186835
 H        -0.0825403571       -3.3849504829       -8.6035490127
 H         1.5921901631       -3.6171563692       -8.7931030114
 H         0.8653235869       -2.0452133000       -9.0812212965
 H        -0.2915714102       -8.0339104488       -2.3845248923
 H        -1.8434211013       -8.7074576336       -3.0830532726
 H        -1.6780906750       -6.9532761286       -2.4190593096
 H        -0.6182099917       -8.4798315406       -6.1681333465
 H         0.0953423745       -8.8612402050       -4.5748953698
 H         0.7450159340       -7.5580548977       -5.5532340111
 H        -8.0057827679       -4.3795344679       -6.6813636232
 H        -6.7280981544       -3.5930244940       -5.9183681345
 H        -7.4843317759       -5.0290996340       -5.1568303421
 H        -6.3179127788       -7.3464649889       -7.7214346840
 H        -7.6388663171       -6.9871617781       -6.5901331948
 H        -6.1086504097       -7.4644714058       -5.9578927291
 H        -4.8249446329       -5.3821722628      -11.4884384480
 H        -4.1013715834       -4.9421613194      -13.2347213969
 H        -5.5798181488       -4.2556885070      -12.6509687467
 H        -1.3963615169       -3.2177044634      -11.8262616421
 H        -2.0799131391       -4.5348207544      -12.8097372562
 H        -2.0431319079       -4.6142030153      -10.9568198742
 H        -0.8160960088        1.1570658121      -16.9604724010
 H        -1.5980215438        2.7124952251      -16.4927632516
 H        -1.5815723492        2.0509767306      -18.1258050954
 H        -4.9528023784        1.1053244628      -16.4087990974
 H        -4.1246997724        2.7038626697      -16.6145134081
 H        -3.7561148842        1.8897867159      -15.1454998245
 H        -5.8821960300        0.1135356725      -22.2559032352
 H        -5.1780722690        0.0611797058      -20.6144073573
 H        -5.3339536232       -1.4127600970      -21.3846308392
 H        -4.0014007064       -1.1058049383      -23.9031503366
 H        -2.6794603825       -1.8045530767      -22.8170465005
 H        -2.4252787890       -0.3437832868      -23.8059254918
 H        -2.9072402408        3.4368699077      -27.4032770696
 H        -1.7726745561        2.4131749715      -28.0512767502
 H        -1.5001774604        4.0251742311      -28.1073125804
 H         0.6411678534        2.8945081688      -26.8209584054
 H         0.0264263420        1.3514867035      -26.4049915386
 H         0.3718113324        2.5248500583      -25.0127063172
 H         1.6918392312        6.5974651823      -20.4493036599
 H         0.8738985877        7.6580011417      -21.7240839632
 H         2.2743553771        6.6398706085      -22.0273749834
 H         0.8811161061        3.2752085150      -21.8631271930
 H         2.1717973065        4.1796410684      -20.7922513512
 H         2.1762934211        4.1674615485      -22.4780166841
 Na       -3.5933669576       -3.8719446180       -3.2016147844
 Na       -1.6179118713        2.7909848713      -21.7682561024
