232

 C        -0.9903253015        6.8209228596      -19.8835794805
 C        -0.5868583724        5.4577238720      -20.4856366213
 O        -1.0751730249        4.4107865927      -20.0234273773
 C         0.4540806620        5.4090058702      -21.7113855772
 C        -0.4007012710        5.3814387489      -23.0491818325
 O        -1.3028248148        4.5723499410      -23.2852331582
 C         0.0006156517        6.2630822555      -24.2351487546
 C         0.1084651066        5.3576488830      -25.4742833980
 C        -1.2713676050        4.6920335615      -25.8206823113
 O        -2.2253165592        5.4473427344      -25.8676746731
 C        -1.4328405700        3.1924360630      -26.1309669811
 C        -2.3561061367        2.3964572965      -25.0747658733
 O        -1.7772447914        1.5919924481      -24.3559042448
 C        -3.8681032964        2.8464356114      -24.9657724603
 C        -4.6342988119        1.8780100522      -24.0641955640
 C        -4.0053493664        1.6781473711      -22.6283494485
 O        -3.6742961792        2.6345365739      -21.9537757180
 C        -3.9567243780        0.2548677105      -22.0524080131
 C        -2.8946640289        0.0569054143      -20.9741687606
 O        -1.8716832817        0.7969834413      -20.8828125976
 C        -2.9210534099       -1.2431504873      -20.1603824772
 C        -2.5716395669       -1.0143764628      -18.6637346853
 C        -3.3816391996        0.1973490191      -17.9828427695
 O        -4.3245991301        0.6209954240      -18.5524477537
 C        -2.8973260950        0.8788897265      -16.6214495874
 C        -2.4734596453       -0.2153732772      -15.6872728949
 O        -1.3879011282       -0.7859097729      -15.9162924819
 C        -3.4695250754       -0.6827588052      -14.6683442428
 C        -2.8677557301       -1.7996608538      -13.6914528945
 C        -3.8365222134       -2.2808722656      -12.6886008111
 O        -4.8768005895       -1.5650133993      -12.5788397305
 C        -3.5631778897       -3.5018613193      -11.6739632892
 C        -3.9579705937       -3.0225940931      -10.2376498702
 O        -3.0864806421       -3.0219216908       -9.3844444062
 C        -5.5346235152       -2.8672167708       -9.9056192939
 C        -6.0766042320       -3.3872470908       -8.5012391490
 C        -6.2885739543       -4.8250773620       -8.2494695785
 O        -6.4997073855       -5.6044036079       -9.1623864470
 C        -6.2172682637       -5.3831773650       -6.7895624717
 C        -4.7341161517       -5.1538871903       -6.3045537626
 O        -4.5770439720       -4.3640339471       -5.4159159687
 C        -3.5868208145       -5.9012358435       -7.0671618754
 C        -2.2893167584       -5.9781427023       -6.3312690492
 C        -2.3370726443       -6.8566931500       -5.0238819010
 O        -3.2107740628       -7.6287585883       -4.7962800375
 C        -0.8878347132       -7.1456464815       -4.2858181909
 C        -0.3037819055       -5.6962668111       -3.8990784901
 O        -1.0847174814       -4.8380848287       -3.4244578190
 C         1.1729924607       -5.3235589809       -4.0268478452
 C         1.3052574713       -3.9180960587       -4.6936407288
 C         0.9880757926       -4.0066572358       -6.1883624149
 O         0.8337630636       -5.1056149998       -6.7373546922
 C         1.0284229264       -2.6273000766       -6.8720799220
 C        -0.2066755288       -1.6990435606       -6.2361738795
 O         0.1350553412       -0.7994236179       -5.4779075505
 C        -1.6016948589       -1.7435349787       -6.7948657955
 C        -2.4762297951       -0.7097963411       -6.0681843575
 C        -2.3622162699       -1.1446502854       -4.5755407656
 O        -1.9242382342       -2.2439092367       -4.3274938226
 C        -2.5141307550       -0.0219532771       -3.4498957045
 C        -3.8338461295       -0.4436543869       -2.5382373100
 O        -4.3043679843       -1.5295857478       -2.5697516090
 C        -4.4882109723        0.6300444122       -1.6406284340
 C        -5.2863365468        0.1852569436       -0.3970190572
 C        -4.2074095262       -0.1319735179        0.6797853736
 O        -3.0315199875       -0.0123810194        0.3878782472
 C        -4.7226103785       -0.8104713700        2.0558466861
 C        -4.4875814648       -2.3426007761        1.7835747044
 O        -5.4224732265       -3.1002649234        1.7729146620
 C        -3.0804517775       -2.9355900111        1.7661370390
 C        -3.0127747279       -4.4289986914        1.4472468897
 C        -3.4974417110       -4.5115403400       -0.1060079653
 O        -2.9337255048       -3.8544151200       -0.9522685080
 C        -4.6173836637       -5.6346522224       -0.5101524622
 C        -5.8230256074       -4.9190702542       -1.2506589999
 O        -5.6819817236       -4.8085524511       -2.5067704463
 C        -7.1113810302       -4.5124415636       -0.5917203930
 C        -8.1913771636       -4.0733271278       -1.6563876203
 C        -8.5859624290       -2.5294835952       -1.5107028394
 O        -8.4330849722       -2.0250736792       -0.4275012889
 C        -9.4178704610       -1.8299583335       -2.6601509107
 C        -8.6321254426       -0.5897606410       -3.3071592820
 O        -7.4634893009       -0.3852419046       -3.1037967791
 C        -9.2469890390        0.0438631609       -4.5117586452
 C        -9.7113909870       -2.8449213660       -3.7827713520
 C       -10.7614988830       -1.2884674501       -1.8989925886
 C        -4.0640223660       -6.7438645579       -1.4309116279
 C        -5.1692698221       -6.2829733397        0.7114565450
 C        -3.7193160821       -0.2916878221        3.1900024716
 C        -6.1600422721       -0.4677407964        2.3769213046
 C        -1.4257008561       -0.2463051400       -2.4176710608
 C        -2.5303013062        1.4111860438       -3.8979043900
 C         2.3895143310       -1.9746068170       -6.6833789686
 C         0.7978923210       -2.6545485070       -8.4530237816
 C        -1.0079495086       -7.8697663572       -2.9600402454
 C         0.0423178680       -7.8734070340       -5.3819686227
 C        -7.1952516123       -4.6749786431       -5.8279782596
 C        -6.5389663576       -6.8892448081       -6.9438609407
 C        -4.4843690674       -4.6381740888      -12.1261465217
 C        -2.1603575701       -3.8806508437      -11.6007878921
 C        -1.6197004414        1.7531931400      -17.1123462025
 C        -3.9173304389        1.8556629843      -16.0052367906
 C        -5.4292847674       -0.0754413716      -21.7089384868
 C        -3.5705985996       -0.8450879717      -23.1942779959
 C        -1.9786717306        2.9377227555      -27.5406149634
 C        -0.0101190464        2.4938698653      -26.1364610282
 C         1.4343023503        6.6490476295      -21.6541483046
 C         1.0890701532        4.0122437446      -21.5972493138
 H        -1.2762726606        6.7198021227      -18.7976426168
 H        -1.9408046040        7.2084873986      -20.2870478541
 H        -0.2736816127        7.6882868973      -19.9004541702
 H         1.0208857672        6.6592104882      -24.1072197286
 H        -0.7224062077        7.1242142782      -24.3741120878
 H         0.8658430040        4.6843951684      -25.3807680342
 H         0.4170180456        6.0924585226      -26.2084710709
 H        -4.3241084352        2.7424313157      -26.0101744576
 H        -3.9647470309        3.8147870801      -24.6913406653
 H        -4.7270021616        0.9229139189      -24.4958835621
 H        -5.6532247440        2.1025770723      -23.9241108027
 H        -2.0953369163       -1.9650755767      -20.4970325680
 H        -3.9002892310       -1.7905329388      -20.2857201343
 H        -1.5122962521       -0.8149131972      -18.6397827822
 H        -2.7650692579       -1.8487310351      -18.0458504969
 H        -4.4217181385       -1.0508263402      -15.1624221959
 H        -3.7870325664        0.2563792594      -14.0704614879
 H        -1.9133870342       -1.3850463434      -13.3666786336
 H        -2.5148438361       -2.6110422056      -14.3479302794
 H        -6.1643847469       -3.1985795997      -10.8821407912
 H        -5.5596829182       -1.7358523173       -9.8069286264
 H        -7.0555802802       -2.8842590398       -8.1862605532
 H        -5.3789189662       -3.0647835767       -7.7774353480
 H        -3.4438132644       -5.3105634782       -8.0100677644
 H        -3.8792273024       -6.8625106618       -7.3969638410
 H        -1.8882361359       -4.9762956678       -6.2321318966
 H        -1.4628768523       -6.3513304908       -6.8571254999
 H         1.7721091740       -6.0058714204       -4.5658535273
 H         1.5162185999       -5.3762646403       -3.0242383648
 H         2.3897818843       -3.7242572335       -4.7149863500
 H         0.7794898873       -3.1267501874       -4.1623742842
 H        -2.0874991079       -2.7080768763       -6.5647601183
 H        -1.5970579636       -1.6131854731       -7.9273318239
 H        -3.5652964278       -0.7826235312       -6.4718161148
 H        -2.1780400957        0.3735119249       -6.1770929479
 H        -5.1670316628        1.2193272791       -2.2015818751
 H        -3.7356675386        1.4038755687       -1.3949810081
 H        -5.8091772527       -0.7449752523       -0.6335393965
 H        -6.0154365397        0.9075452364       -0.1950694697
 H        -2.6285701595       -2.6182459480        2.7140132211
 H        -2.3657115879       -2.3572156989        1.1446958175
 H        -3.7075985789       -5.0739552128        2.0654457216
 H        -1.9600223993       -4.7232567410        1.6053797891
 H        -6.7940735463       -3.7245139168        0.0129351979
 H        -7.5796160549       -5.2844640205        0.0614153217
 H        -9.1710177894       -4.4966990466       -1.6007905526
 H        -7.7685972208       -4.3424015329       -2.5732203315
 H        -8.6770924562        0.9802828356       -4.7395117745
 H       -10.2483051946        0.3292896284       -4.3860619375
 H        -9.2548319610       -0.5303652575       -5.5155668698
 H        -8.8196027589       -3.2283796172       -4.2423414075
 H       -10.3301224050       -2.3287112961       -4.5773516253
 H       -10.2003643645       -3.7783302746       -3.4916624238
 H       -10.8857341146       -1.7839252667       -0.9575139437
 H       -11.6332736738       -1.3386929202       -2.4620078741
 H       -10.6497732126       -0.2581441531       -1.7061081714
 H        -4.7272158096       -7.5665436729       -1.5376634657
 H        -3.1250839740       -7.1942928892       -1.1665003876
 H        -3.9142122527       -6.3030853018       -2.3559830061
 H        -6.0644481705       -6.8742093348        0.4018915879
 H        -5.3753906452       -5.4994209014        1.3336766132
 H        -4.5493699692       -7.0214495187        1.2322057076
 H        -3.9038564230       -0.9590036357        4.0873218203
 H        -3.7991875807        0.7793946216        3.2920735458
 H        -2.7636250377       -0.4331910567        2.7676495583
 H        -6.2194109978        0.5122047364        2.8721074513
 H        -6.5621392266       -1.3588486164        2.9033910913
 H        -6.7276728056       -0.2660217304        1.4865557695
 H        -0.4326845126       -0.4065094951       -2.8013156357
 H        -1.5837663787       -1.1925847420       -1.9077745334
 H        -1.4668802285        0.4959515416       -1.5788328170
 H        -1.5758990130        1.8560138315       -4.1258927820
 H        -2.9567782373        2.1508135591       -3.1996179481
 H        -3.2915847103        1.5178251429       -4.6909045329
 H         2.5705295272       -0.9915479198       -7.1961513102
 H         3.1056939633       -2.6626220127       -7.1005589367
 H         2.7245239914       -1.8017178108       -5.6980268673
 H        -0.0391645444       -3.1367355556       -8.9814660254
 H         1.7032677241       -3.1000536586       -8.9652370525
 H         0.8186542210       -1.6140129138       -8.8319550434
 H        -0.0043588395       -7.9677147481       -2.5702455970
 H        -1.3626149204       -8.8494463635       -3.2399945502
 H        -1.5834372310       -7.2713853012       -2.2273374630
 H         0.5346804886       -7.0752588627       -5.9109085310
 H        -0.6299777444       -8.3842687295       -6.0618316740
 H         0.8213115682       -8.5525042955       -4.9757796584
 H        -8.2028673318       -5.1041786039       -5.9598824274
 H        -7.2450097115       -3.6390475513       -6.1565483833
 H        -6.7913551032       -4.7840723339       -4.7717071115
 H        -5.8291804752       -7.4475420678       -7.5843157821
 H        -7.5711789868       -6.9123577100       -7.3503829888
 H        -6.6702219066       -7.3601848192       -6.0151283992
 H        -4.0410137026       -5.5100653175      -11.6165649577
 H        -4.4571427244       -4.7051576555      -13.1332219644
 H        -5.5711522306       -4.5847158306      -11.8152444597
 H        -1.7756171093       -3.4769906578      -10.6348650121
 H        -1.6010888547       -3.4758272733      -12.3705834196
 H        -1.9406672498       -4.9565835119      -11.6927311982
 H        -0.7069232090        1.4286248283      -16.5407699120
 H        -1.9083893636        2.7966425881      -17.0081682449
 H        -1.2957284060        1.7096567465      -18.1306232329
 H        -4.7791192834        1.2439385939      -15.7713993139
 H        -4.2530175205        2.5629532474      -16.7672756860
 H        -3.2405947913        2.3091278696      -15.2519720348
 H        -5.8969438814       -0.1238674556      -22.7687079759
 H        -5.8909360152        0.5765324221      -20.8986016085
 H        -5.4698203269       -1.0563803134      -21.2890939859
 H        -4.0148985940       -0.7351032955      -24.1970998577
 H        -3.7963915630       -1.8095722642      -22.8396622639
 H        -2.4982858541       -0.8369947798      -23.3177531014
 H        -3.0465757220        3.3160240901      -27.6902470414
 H        -1.8199836031        1.8346481454      -27.8698244833
 H        -1.5042761376        3.5214590836      -28.3436609660
 H         0.5028628229        2.6433629959      -27.1148555541
 H        -0.3258262024        1.4854037845      -26.2192452178
 H         0.5423946327        2.5178033874      -25.2359463054
 H         2.0905292080        6.5850805934      -20.7994143371
 H         0.9276382724        7.5468833746      -21.8471281600
 H         2.1029301659        6.5407200840      -22.5528735578
 H         0.3956634225        3.1824166056      -21.8119557017
 H         1.5287117373        3.9793404118      -20.6171438170
 H         1.9657870538        3.8155746480      -22.2052178584
 Na       -3.4972552298       -3.8589162540       -3.2637587400
 Na       -1.4439030738        2.6904980025      -21.7501735314
