232

 C        -0.8742042071        6.8541094127      -19.9465127390
 C        -0.6377004542        5.4981326658      -20.5424162307
 O        -1.2343513884        4.5262955289      -20.1484954433
 C         0.3561590728        5.3979200532      -21.7220975513
 C        -0.3926421736        5.4016756883      -23.1009582018
 O        -1.2539286147        4.5573249277      -23.1913540050
 C        -0.0808576491        6.3253880962      -24.2526243503
 C         0.0449091231        5.2121325487      -25.4618284320
 C        -1.4061937217        4.7807724851      -25.8383044425
 O        -2.3644784042        5.4855170225      -25.9462455044
 C        -1.4654944100        3.0978296706      -26.2184916304
 C        -2.3004102293        2.4903923112      -25.1249732140
 O        -1.9467056232        1.6459538090      -24.3637711063
 C        -3.6579608050        2.9653373616      -25.0202830665
 C        -4.6411497718        2.1051174150      -24.1449804400
 C        -3.9634775934        1.6932976296      -22.7572819081
 O        -3.5958772194        2.6475676399      -22.0890118490
 C        -4.0960009745        0.2188543168      -22.0931499558
 C        -2.9947483295        0.0638279102      -20.9735887788
 O        -1.9590273760        0.7147737898      -20.9612409208
 C        -3.0152648127       -1.1419632736      -19.9996560864
 C        -2.6650806702       -0.9729593710      -18.4937615456
 C        -3.4752286581        0.2690105638      -18.0267558959
 O        -4.5741908072        0.5961513718      -18.5071983765
 C        -2.8216632223        0.9431701782      -16.7427826307
 C        -2.3665519086       -0.2685502706      -15.7641519268
 O        -1.3615948453       -0.9189189152      -15.9060421491
 C        -3.3289950431       -0.6684854646      -14.6225134248
 C        -2.7749946422       -1.8246219705      -13.7825212540
 C        -3.7626498337       -2.1742547001      -12.6325225092
 O        -4.8770205850       -1.6388238634      -12.4313263463
 C        -3.4083329848       -3.4289766467      -11.6607401649
 C        -4.0605712125       -3.1413946351      -10.1832895996
 O        -3.2556270507       -3.0875860690       -9.3222980191
 C        -5.5154065216       -2.9150758741       -9.8873864414
 C        -5.9459990334       -3.2040025016       -8.4105991902
 C        -6.1553996576       -4.7974689970       -8.2785249544
 O        -6.4250996429       -5.5455376964       -9.2006135438
 C        -6.2064162082       -5.4968507075       -6.6845642217
 C        -4.7201189624       -5.1703890654       -6.1851010085
 O        -4.4585549853       -4.2223155575       -5.4120418262
 C        -3.5040517944       -5.7098233926       -6.9810917703
 C        -2.2376290747       -6.0622971973       -6.2722691481
 C        -2.2223749950       -7.0500631376       -5.1438282646
 O        -3.2256409520       -7.5245919936       -4.6165552361
 C        -0.7664800711       -7.1110744700       -4.3857482974
 C        -0.3303902610       -5.6346420019       -3.9028693772
 O        -1.1319345412       -4.8192477971       -3.5906038269
 C         1.1940952432       -5.2821430294       -3.8826095117
 C         1.3368106985       -3.9003985849       -4.6973692294
 C         0.9939611685       -3.9720616695       -6.1930479973
 O         0.7885209224       -5.0161514138       -6.8001692539
 C         1.0188809061       -2.5525611935       -6.9061712200
 C        -0.0963720993       -1.5842986260       -6.3665643115
 O         0.1423876357       -0.7934343272       -5.4882334138
 C        -1.5305859171       -1.7429297863       -6.8880498521
 C        -2.3531487794       -0.7817736195       -6.0289628484
 C        -2.2656051977       -1.0514421505       -4.4792341244
 O        -1.9360172504       -2.2124006708       -4.2092716907
 C        -2.5756166729       -0.0958747506       -3.3027722294
 C        -3.7847679680       -0.4612875019       -2.4668096867
 O        -4.2024019983       -1.6447004661       -2.5072151660
 C        -4.5610167952        0.6604574329       -1.6846896885
 C        -5.2650099863        0.1126764160       -0.4436080493
 C        -4.2562380341       -0.1771145190        0.7089693587
 O        -3.0420782612       -0.0278817022        0.4986863542
 C        -4.7338332014       -0.7861677705        2.0654309962
 C        -4.4881573696       -2.3476126961        1.9457201972
 O        -5.4923824024       -3.1000842331        1.9230002511
 C        -3.0301519554       -2.9381788799        1.8292208447
 C        -3.0573846264       -4.3658164867        1.2575448118
 C        -3.4781972715       -4.6649094958       -0.1783659395
 O        -2.9535934789       -3.9803974284       -0.9831870466
 C        -4.6564735543       -5.6517638682       -0.5016111803
 C        -5.7431646829       -4.9667342493       -1.3949396010
 O        -5.6072773379       -4.8694233646       -2.5967296370
 C        -7.1313518796       -4.5527538775       -0.7688318104
 C        -8.2581053704       -4.0541238924       -1.6942840116
 C        -8.6824396707       -2.5818092081       -1.5165249686
 O        -8.3960235913       -1.9315888835       -0.5406382734
 C        -9.4888712088       -1.9003755518       -2.6868376006
 C        -8.5870770128       -0.6381340235       -3.3933860912
 O        -7.4913856118       -0.3419351269       -2.9916162038
 C        -9.3121597637        0.0449847212       -4.5252439919
 C        -9.8428100157       -2.8406318856       -3.8015130525
 C       -10.6867800659       -1.2908289176       -1.9181265848
 C        -4.0331829734       -6.7263925537       -1.4667866151
 C        -5.2917574853       -6.2896590429        0.8165846820
 C        -3.8249457116       -0.3018202744        3.2880332960
 C        -6.1241021100       -0.4613034116        2.4537256759
 C        -1.2928860479       -0.3752922958       -2.3485882902
 C        -2.6721421229        1.3749095689       -3.8486738149
 C         2.3491214831       -1.9518770062       -6.7285682484
 C         0.6606308381       -2.7011702776       -8.3867566216
 C        -0.9434373454       -8.0122277247       -3.0306645898
 C         0.1647826105       -7.7177965178       -5.3401569284
 C        -7.2088980209       -4.7576105556       -5.8361722387
 C        -6.6347503231       -7.0201771328       -6.8469963076
 C        -4.3880885548       -4.6654155482      -12.1399586524
 C        -1.8921847401       -3.9654164965      -11.6180936191
 C        -1.4339622376        1.7005505041      -17.0769291503
 C        -3.9567033823        1.7761073560      -16.1854868431
 C        -5.5920701217        0.0104147757      -21.6213412244
 C        -3.6391924877       -0.8294831233      -23.0969522319
 C        -2.1165438938        2.8245657911      -27.5731329182
 C        -0.0829722356        2.4426819854      -26.1097202669
 C         1.3988812041        6.4499475768      -21.6819349783
 C         1.1187829631        4.0201049074      -21.5668481374
 H        -0.6827551123        6.9254488418      -18.8502869286
 H        -1.9146047139        7.1979158075      -20.0005178988
 H        -0.2734042562        7.6463000279      -20.3774711595
 H         0.8871486381        6.8580010585      -24.0261959062
 H        -0.8752971302        7.0004147471      -24.4132858704
 H         0.6905382757        4.3780352152      -25.1662056762
 H         0.5250448936        5.7102612112      -26.3622273158
 H        -3.9985510205        3.1319922428      -26.0516272545
 H        -3.6811178231        4.0524481487      -24.4991666223
 H        -5.1469334170        1.2483168844      -24.5680978268
 H        -5.5133871074        2.6772426380      -23.8570366151
 H        -2.1874991725       -1.8793313162      -20.3352690786
 H        -3.9464171669       -1.7035555854      -20.0908810911
 H        -1.6317974283       -0.7778983106      -18.3670942799
 H        -2.9219821877       -1.7861330581      -17.8825783006
 H        -4.3005225973       -1.0290932534      -15.1538083095
 H        -3.6315489317        0.1121219321      -13.9447788772
 H        -1.7363981159       -1.4394493533      -13.5050547078
 H        -2.5678247731       -2.6697698895      -14.4064541024
 H        -6.0236798707       -3.5322189901      -10.6389694947
 H        -5.6418645070       -1.8807848514      -10.1478667577
 H        -6.9518486873       -2.9403939259       -8.2255488960
 H        -5.3658725588       -2.6614090850       -7.6509400468
 H        -3.2276523276       -4.9220410237       -7.6559581789
 H        -3.7897395203       -6.5518356705       -7.6319990565
 H        -1.7600910914       -5.1745762670       -5.9549806285
 H        -1.4163878644       -6.3007482918       -6.9687775765
 H         1.8897667557       -6.0189289370       -4.2463993846
 H         1.4052868666       -5.2723598926       -2.8497036158
 H         2.2981417872       -3.4063748342       -4.5442802799
 H         0.4892307309       -3.2300165145       -4.3258441917
 H        -1.8469290482       -2.8234707271       -6.7809430801
 H        -1.6441902458       -1.4564615994       -7.9253254149
 H        -3.5126783679       -0.7508508666       -6.2663309281
 H        -1.9588147344        0.2701356540       -6.3925836662
 H        -5.3370876946        1.2044741747       -2.2411336241
 H        -3.8595626056        1.5106628483       -1.4551257163
 H        -5.7870232291       -0.7472004281       -0.7105215986
 H        -6.0505675145        0.8998451333       -0.2017388646
 H        -2.3071842588       -2.8100265136        2.6246661529
 H        -2.5618701747       -2.1480092222        1.1345298894
 H        -3.8508474548       -4.8830330873        1.8589063708
 H        -2.0553022326       -4.7938551547        1.5373931271
 H        -6.9212851335       -3.7205275373        0.0426709005
 H        -7.5651116704       -5.3882915890       -0.2578714148
 H        -9.2134610515       -4.5090067345       -1.6166048433
 H        -7.8774936499       -4.2172460045       -2.6724504887
 H        -8.7232029832        0.8925526398       -4.8742516718
 H       -10.2920763058        0.4520911013       -4.1859955299
 H        -9.5770749058       -0.4998621298       -5.4583291452
 H        -8.9591818619       -3.2376726908       -4.3311582497
 H       -10.5879165136       -2.4561638401       -4.5776970019
 H       -10.2596535991       -3.7258243692       -3.4048725418
 H       -11.1150257954       -1.9280627009       -1.2506489569
 H       -11.3907294468       -0.8969825400       -2.6020856281
 H       -10.3331511199       -0.3816056779       -1.4153847381
 H        -4.7357441147       -7.5296646545       -1.7131323768
 H        -3.1917425486       -7.2302713814       -1.0941694885
 H        -3.7553438633       -6.2419456223       -2.3655225285
 H        -5.9240471341       -7.0861715651        0.4072935627
 H        -5.8519227933       -5.4833716441        1.4235622796
 H        -4.5887263499       -6.8142215037        1.4574209132
 H        -4.2113927598       -0.9042233006        4.0272870529
 H        -3.9005706295        0.7504527682        3.4545198828
 H        -2.7744955316       -0.5136933923        3.0668912392
 H        -6.1428213123        0.3456998429        3.1593170567
 H        -6.6299705300       -1.3824695923        2.7043318948
 H        -6.6334523239        0.0376706860        1.5748023204
 H        -0.3635998597       -0.3603063916       -2.9213801898
 H        -1.2310775718       -1.3490663420       -1.8864417427
 H        -1.2865052750        0.3319793349       -1.5948802825
 H        -1.7489622547        1.8066804454       -4.1636034658
 H        -3.1388234241        2.1763904851       -3.2367210613
 H        -3.4413097968        1.3432459202       -4.6058219973
 H         2.5674608776       -0.9783402199       -7.2094175708
 H         3.1707648195       -2.6279341972       -6.9895098897
 H         2.4939901437       -1.7623456746       -5.6622258718
 H        -0.1908196127       -3.3341639446       -8.5988337499
 H         1.4687292868       -3.2273488790       -8.8730831696
 H         0.5522553938       -1.7926523768       -8.9638501769
 H        -0.0083939554       -8.3871676527       -2.6316564186
 H        -1.5897180064       -8.8344384347       -3.4152726413
 H        -1.4042845848       -7.3852351391       -2.3196663136
 H         1.2251122271       -7.3353905771       -5.2381383077
 H        -0.2282372841       -7.4469214051       -6.4032209635
 H         0.1798674758       -8.8022620652       -5.2775095438
 H        -8.1460739973       -5.3215149526       -5.7890189206
 H        -7.4340036135       -3.7742681037       -6.2697502353
 H        -6.7053997329       -4.6720456780       -4.7795561149
 H        -5.8009438111       -7.5911867970       -7.3552145945
 H        -7.5406893324       -7.0452472962       -7.4621279752
 H        -6.9631636757       -7.5390973444       -5.8878029910
 H        -3.8973448187       -5.4549658063      -11.6141767648
 H        -4.3436009123       -4.8444531654      -13.2310238619
 H        -5.3627802702       -4.6528876865      -11.7881664385
 H        -1.4634958271       -3.8824001459      -10.6434500103
 H        -1.2641854339       -3.5802325920      -12.4214811088
 H        -1.8847959863       -5.0134609299      -11.9936539043
 H        -0.7164082099        1.3669114007      -16.3889896785
 H        -1.5828291121        2.8446254346      -17.1681476378
 H        -0.9799643049        1.4720907691      -18.0604488511
 H        -4.6459417296        1.0936940281      -15.7516263083
 H        -4.4657775573        2.1121707922      -17.0504435615
 H        -3.4601190301        2.5435855654      -15.5949302133
 H        -6.2320447133       -0.1698412637      -22.5125781416
 H        -5.8507782914        0.8026063759      -20.9008597945
 H        -5.6266539205       -0.8820075182      -21.0298166695
 H        -4.1713939453       -0.7196285842      -24.0692519048
 H        -3.8520746354       -1.8215249140      -22.7527856462
 H        -2.6075256262       -0.7749294920      -23.2681950622
 H        -2.9009752727        3.5590502177      -27.9220642811
 H        -2.4244837674        1.7553081784      -27.6365952604
 H        -1.3946661813        2.9170859329      -28.4825621176
 H         0.6369026951        2.8854650158      -26.8063224533
 H        -0.1479942081        1.4002960927      -26.3162237520
 H         0.1611081581        2.4240817506      -25.0131536269
 H         1.9068711764        6.4182359927      -20.6914460379
 H         1.0261245545        7.4344827224      -22.0437693253
 H         2.1310599372        6.1939214010      -22.3995196918
 H         0.4526427500        3.1687444049      -21.8252409534
 H         1.6031298687        3.9066240663      -20.6123209332
 H         1.9102328074        3.9726895314      -22.2110653236
 Na       -3.3284295972       -3.7830915131       -3.3512498959
 Na       -1.3791421233        2.7803396317      -21.7490551791
