232

 C        -0.6554203323        6.9625317255      -19.9940979635
 C        -0.6975500002        5.6081643610      -20.7391518767
 O        -1.5441203638        4.7778110175      -20.5031500588
 C         0.4282924038        5.3825454534      -21.7946065656
 C        -0.3817986843        5.2755199182      -23.1410140793
 O        -1.2138075726        4.4080122356      -23.2495043030
 C        -0.1962418121        6.2692796350      -24.3743515645
 C        -0.0998117234        5.4273529256      -25.6816291797
 C        -1.4467550342        4.6292384360      -26.0659497544
 O        -2.3590612877        5.4173830850      -26.2029663449
 C        -1.5073242601        3.0226432240      -26.2616086717
 C        -2.3991394965        2.5215462152      -25.0150922855
 O        -2.0066842323        1.7843027413      -24.1278323486
 C        -3.8204714019        3.1289281592      -24.8997791757
 C        -4.7063601497        2.0881714915      -24.1698057423
 C        -4.0009474156        1.7990900025      -22.7635775785
 O        -3.7738752194        2.7408694895      -22.0139336012
 C        -4.2048020153        0.3929817886      -22.2461058836
 C        -3.1782218330        0.0477048179      -21.0914182046
 O        -2.1276885249        0.7010390309      -20.9012296607
 C        -3.4546071664       -1.0699605687      -20.1091600149
 C        -2.7521833875       -0.9288479897      -18.7089869618
 C        -3.5911247404        0.2054871768      -17.9277550660
 O        -4.6955366584        0.4568477699      -18.3688225325
 C        -2.8276977377        0.8195956417      -16.6634863318
 C        -2.4061200663       -0.3856194200      -15.6289344267
 O        -1.4513991487       -1.0864339201      -15.9376341376
 C        -3.3700481705       -0.6100764648      -14.4357007920
 C        -2.8039016335       -1.8652084751      -13.6646264947
 C        -3.5814189350       -2.2119011147      -12.4268408244
 O        -4.6407057003       -1.5662714875      -12.1916391242
 C        -3.3304863399       -3.4520186582      -11.5698075794
 C        -3.8555728298       -3.3349298048      -10.1439208819
 O        -3.0794165239       -3.4570399454       -9.2181929077
 C        -5.3747415148       -3.0458417596       -9.9574527279
 C        -5.8730291542       -3.3637878723       -8.5828402118
 C        -6.0296725891       -4.8016886337       -8.1985091454
 O        -6.1405725730       -5.5721041734       -9.1422602399
 C        -6.0166601674       -5.3849353589       -6.6974953007
 C        -4.5876469647       -5.1391044363       -6.1219079182
 O        -4.3909229087       -4.2844299958       -5.2552597801
 C        -3.4239155607       -5.8270657193       -6.9564720780
 C        -2.0882123550       -5.8070874489       -6.2910513154
 C        -2.0486126112       -6.8229520713       -5.2154131395
 O        -3.0474008725       -7.2440327390       -4.5980343150
 C        -0.5556052810       -7.1439696760       -4.4923584297
 C        -0.2568737394       -5.7024941539       -4.0056347279
 O        -1.1983604130       -5.0369595318       -3.5671950653
 C         1.1780126739       -5.0777092600       -3.8908715947
 C         1.2465868404       -3.6100691155       -4.5745893002
 C         0.9653593729       -3.7321286463       -6.0890227072
 O         0.5776810462       -4.8409350867       -6.4553898311
 C         1.0096402689       -2.5395689151       -7.0611088738
 C         0.0419429953       -1.4508563673       -6.3313566914
 O         0.3657052542       -0.6933250488       -5.4279574928
 C        -1.4540484632       -1.5103056324       -6.8322444051
 C        -2.3769080672       -0.6988623591       -5.9079258618
 C        -2.1531446180       -1.0674337366       -4.4379988366
 O        -1.7754479559       -2.1938423811       -4.1411225967
 C        -2.3927763869       -0.1471105458       -3.2094758630
 C        -3.7407658384       -0.6358507431       -2.4365027752
 O        -3.9247571866       -1.8384312776       -2.2704533113
 C        -4.6489488171        0.3590164944       -1.5927107717
 C        -5.3214946279       -0.1628929247       -0.3017954816
 C        -4.3121028290       -0.3210798536        0.8147058296
 O        -3.1353538630        0.0124231802        0.6526051893
 C        -4.8026455636       -0.8269445063        2.1961306421
 C        -4.6021766692       -2.3840241960        1.9032747041
 O        -5.5276960842       -3.1519121214        2.1964410764
 C        -3.2155765912       -2.9596128840        1.5910236776
 C        -3.2296529144       -4.5378652939        1.3191943368
 C        -3.5428438872       -4.6839284329       -0.1731929505
 O        -2.9413785089       -4.1069363685       -1.0118814619
 C        -4.7413294549       -5.7796771325       -0.5530469108
 C        -5.7762760052       -4.8941930941       -1.4508970211
 O        -5.3471439961       -4.6042344366       -2.5780125895
 C        -7.1693493910       -4.5907042987       -0.9721663377
 C        -8.0595405833       -4.0672948720       -2.1420742814
 C        -8.6097717182       -2.6308840172       -1.7662744541
 O        -8.0621989414       -1.9954726094       -0.9166113903
 C        -9.6530323468       -1.8235953432       -2.6766777600
 C        -8.7713352376       -0.6803293060       -3.3137863551
 O        -7.6762045210       -0.3812014650       -2.9078884568
 C        -9.1995275606        0.0569661002       -4.6300782896
 C       -10.1186788718       -2.7967240222       -3.6857115336
 C       -10.7915303775       -1.2270565981       -1.8314311168
 C        -4.0094740591       -6.9728347583       -1.3585698633
 C        -5.5519516704       -6.2944239875        0.6496653596
 C        -3.8448613585       -0.3167551505        3.3052734352
 C        -6.3160092239       -0.4939467369        2.4913850016
 C        -1.2726485435       -0.1204166082       -2.1250090459
 C        -2.7583896861        1.3141547925       -3.6334066728
 C         2.4500694613       -1.8867501965       -7.1080506565
 C         0.7015572994       -2.9109026560       -8.4825726343
 C        -0.6910810235       -8.0447981246       -3.2639634123
 C         0.3597225718       -7.7576769911       -5.5887602516
 C        -7.0438024252       -4.5475400460       -5.9452798956
 C        -6.3732398771       -6.8662259206       -6.7048498944
 C        -4.0470298921       -4.6828559201      -12.3027618318
 C        -1.7171341626       -3.8533705409      -11.4189667414
 C        -1.5579453559        1.4927531950      -17.2488089745
 C        -3.7409670579        1.8732671019      -15.8785559637
 C        -5.6066787038        0.4724921584      -21.5838605526
 C        -4.2572410890       -0.6576240609      -23.3571571822
 C        -2.3357455516        2.8367002779      -27.5729979183
 C        -0.2419155662        2.1612062805      -26.2375250151
 C         1.4902460623        6.5285054465      -21.8501303704
 C         1.2284262635        4.0292492973      -21.5491158476
 H         0.3781528671        7.3164256625      -19.7644779434
 H        -1.0060028234        6.9137761702      -18.9759186815
 H        -1.1983781381        7.8131015635      -20.4015913472
 H         0.8041392879        6.7441596532      -24.2271995135
 H        -1.0521315653        6.9681428882      -24.3583696357
 H         0.6966566626        4.8167242383      -25.5520849901
 H         0.0990817001        6.0690892219      -26.5179597621
 H        -4.2147890203        3.2267413839      -25.8603669076
 H        -3.7354401644        4.1268948733      -24.4861722230
 H        -4.7854333281        1.2456907473      -24.8114907883
 H        -5.7555376473        2.3283048314      -24.0831568913
 H        -2.9308838485       -1.9425519299      -20.5959337169
 H        -4.4753791688       -1.4155770611      -20.0213386273
 H        -1.7179303925       -0.5193391070      -18.7931597334
 H        -2.6974814322       -1.8443798349      -18.0963185040
 H        -4.4212484552       -0.8396654026      -14.6987484161
 H        -3.2781688679        0.2964727293      -13.7885218506
 H        -1.7375542908       -1.6795192983      -13.3774161010
 H        -2.8833162063       -2.7412042288      -14.2983464637
 H        -5.9323171319       -3.5180690227      -10.8743005801
 H        -5.3874201803       -1.9092773037      -10.0899142491
 H        -6.8340807364       -2.7943875488       -8.3379138399
 H        -5.2032373866       -3.0083648607       -7.7969242282
 H        -3.2912452572       -5.2025468500       -7.8931904358
 H        -3.6208952192       -6.8260645277       -7.3153385176
 H        -1.8129296710       -4.8138010184       -5.8950349077
 H        -1.2946171923       -5.8852052845       -7.0139015940
 H         1.9523896357       -5.7170360534       -4.3191722314
 H         1.5123164474       -5.0053025758       -2.8399057874
 H         2.2441106093       -3.2053286027       -4.4937660510
 H         0.5487522042       -2.9945056896       -4.0245703316
 H        -1.8722361317       -2.5048782303       -6.9386856654
 H        -1.4190054216       -1.0774436996       -7.8607846115
 H        -3.4286019598       -0.9512271952       -6.0939709013
 H        -2.2322946086        0.3715555707       -6.0498329245
 H        -5.3601782975        0.7660073940       -2.2540765437
 H        -4.1045287557        1.2951089761       -1.3698902188
 H        -6.0019114127       -0.9948335141       -0.4586920021
 H        -5.8843164921        0.6902773756        0.0411238050
 H        -2.5436723702       -2.5359822946        2.2997796623
 H        -2.8802756546       -2.3846100335        0.7023687515
 H        -3.9330899081       -5.0615750235        1.9759191255
 H        -2.2773107194       -5.0118469058        1.3730113065
 H        -7.0688284851       -3.7692349043       -0.3508610976
 H        -7.6711856331       -5.3562994794       -0.3764009190
 H        -8.8652451323       -4.7462432451       -2.4813416881
 H        -7.4667245631       -3.7263466296       -3.0155724964
 H        -8.4221267584        0.5563968881       -5.1987481371
 H        -9.8516656373        0.8078427179       -4.3127217508
 H        -9.8971500252       -0.4396370770       -5.3639780908
 H        -9.3816084062       -3.2176382746       -4.3169344587
 H       -10.7996910722       -2.2281526019       -4.4277219869
 H       -10.7494338388       -3.5495942016       -3.3163311289
 H       -11.6278868684       -1.8973495648       -1.7448243248
 H       -11.0878329126       -0.1783958057       -2.0587039627
 H       -10.3004368362       -1.1722006754       -0.7962150236
 H        -4.6216838625       -7.8460828157       -1.7272489629
 H        -3.2662033083       -7.4420849561       -0.6546825017
 H        -3.4745892590       -6.5863194507       -2.2056205031
 H        -6.4311067160       -6.8511378110        0.3120540460
 H        -5.8596091682       -5.4858500322        1.2792465248
 H        -4.8722183457       -6.9354355269        1.1413934644
 H        -4.0533611059       -0.7236856978        4.3151939686
 H        -4.0540113478        0.7889970353        3.3489965731
 H        -2.8574929225       -0.4730136560        2.8318834311
 H        -6.2243839666        0.1437996688        3.3626667429
 H        -6.8442884005       -1.4113357343        2.7573676295
 H        -6.9073830067       -0.0396928324        1.6845553917
 H        -0.3995272858        0.5253249772       -2.4404429207
 H        -0.7685218852       -1.0987642852       -1.9349133541
 H        -1.6656751778        0.3723369509       -1.2174063342
 H        -2.0169245775        1.6533413597       -4.3333626837
 H        -2.8434877215        2.0295339210       -2.7779858805
 H        -3.7643069003        1.4144129085       -4.0924098415
 H         2.5002385306       -1.1473647490       -7.9467795226
 H         3.2367958434       -2.5877997100       -7.2819960565
 H         2.7226445141       -1.3674760314       -6.2318052588
 H        -0.3765555739       -3.1440129672       -8.5191629069
 H         1.3159221969       -3.6700096823       -9.0042936147
 H         0.7323323720       -2.0082011042       -9.1025578990
 H         0.2689001433       -8.1060124524       -2.7243639293
 H        -1.1731538194       -9.0220704164       -3.5726234971
 H        -1.4292116969       -7.5290853812       -2.6250962963
 H         0.1529666954       -8.7221337906       -5.9664096089
 H         1.3989925927       -7.8783790440       -5.2233617988
 H         0.3863253043       -7.0328632930       -6.3307344614
 H        -7.9785419055       -4.6372987361       -6.3759984642
 H        -6.7255738585       -3.5606689988       -5.9592962557
 H        -7.0004383538       -4.8607643937       -4.8630182324
 H        -5.9438533851       -7.2349126988       -7.6374391157
 H        -7.4038913495       -7.1338208560       -6.7735021523
 H        -5.9018918426       -7.3771974568       -5.9058056439
 H        -4.3352725037       -5.5014535791      -11.5591911433
 H        -3.3053509982       -5.1162997173      -12.9402363583
 H        -4.9672829921       -4.2744478886      -12.7668976904
 H        -1.5056545581       -4.0400556488      -10.3621531474
 H        -1.0742353061       -3.1596354781      -11.8492198954
 H        -1.4535158084       -4.7208811931      -12.0582595057
 H        -1.1992324727        2.3606435281      -16.6987781534
 H        -1.7339603428        1.7641755176      -18.3312676606
 H        -0.7947060563        0.7722863081      -17.3225386183
 H        -4.7446491243        1.4630560261      -15.7145683050
 H        -3.7096853171        2.7234740477      -16.5569984858
 H        -3.2441616995        1.9139510218      -14.8668553998
 H        -6.2568803417        1.1113833141      -22.3097444464
 H        -5.5770813228        1.0180903509      -20.5667299591
 H        -6.1252864382       -0.4338912002      -21.6480770501
 H        -5.2759202379       -0.6447232588      -23.8821085431
 H        -4.1163755882       -1.6762281792      -23.0443391253
 H        -3.4726367570       -0.4810775635      -24.0871863805
 H        -2.7974524418        3.7641407761      -27.8138989426
 H        -3.0606991501        2.0644887746      -27.5398333738
 H        -1.6312148651        2.7193668928      -28.4043236501
 H         0.5227714871        2.4385507076      -27.0377365829
 H        -0.5818263778        1.1571762180      -26.2970954381
 H         0.2024917550        2.2332923665      -25.2357416783
 H         2.1327925801        6.5143403044      -20.9574147136
 H         1.0239352632        7.5037607848      -21.9410444060
 H         2.0898920159        6.3018566703      -22.7256233644
 H         0.5050270410        3.2473454140      -21.3185842223
 H         1.7525398923        4.1010740637      -20.5584849405
 H         1.9588000850        3.7228206657      -22.2758481269
 Na       -3.3931889728       -4.0091262394       -3.3161292620
 Na       -1.6102566961        2.6524939680      -21.5961711373
