232

 C       -20.8164364372       -7.7978961862       -4.0661313217
 C       -20.6475928070       -6.3295684245       -3.6396575254
 O       -19.8867107556       -5.9516394444       -2.7736350941
 C       -21.4016596724       -5.1015452031       -4.4656963760
 C       -20.1994254598       -4.2967777073       -4.8753272816
 O       -19.7651719033       -3.4176529130       -4.1331222025
 C       -19.3691829493       -4.7704659676       -6.0883500031
 C       -18.2028151391       -3.7772423255       -6.2909345622
 C       -17.4770638429       -3.6936366479       -4.9524277118
 O       -17.2730962331       -4.7388946727       -4.2814030352
 C       -16.7080886619       -2.3210855461       -4.5339420328
 C       -16.3809183279       -2.6339461660       -3.0267605374
 O       -17.2739185202       -2.5103600278       -2.1961882427
 C       -14.9867530196       -3.0391918838       -2.6065222188
 C       -14.8865862213       -3.2546830171       -1.0557243233
 C       -15.4240393475       -4.6607452050       -0.6492232164
 O       -16.5274993091       -5.0739028527       -1.0356017558
 C       -14.5672173450       -5.6488070594        0.1368169320
 C       -13.3048949427       -6.0117428640       -0.8195380010
 O       -12.6744508907       -5.0884884519       -1.2589778676
 C       -12.9102732309       -7.5314953180       -1.0465644224
 C       -11.5233008817       -7.6556892741       -1.6404611378
 C       -11.4630175998       -8.7275321492       -2.6960312767
 O       -12.2774597931       -8.7548986215       -3.6105262935
 C       -10.2674336980       -9.7616783789       -2.6601858999
 C        -8.9391378940       -8.9755208286       -2.7151759368
 O        -8.2498614615       -8.9924746272       -1.7138350912
 C        -8.7609400181       -7.8924469430       -3.7644695038
 C        -7.4025910561       -7.1032590469       -3.7806200576
 C        -7.5444279177       -5.6007909184       -4.0052482936
 O        -8.6083995784       -4.9962967215       -3.8131726051
 C        -6.2375308361       -4.8303784467       -4.4546152042
 C        -5.5090302358       -5.4536164347       -5.5842263177
 O        -5.0316764054       -6.5583051640       -5.4872064279
 C        -5.2973554564       -4.5896495854       -6.9444882786
 C        -4.0692305905       -5.1446544938       -7.6312683164
 C        -3.5250910970       -4.1154523322       -8.6344725558
 O        -4.3293562309       -3.6356839354       -9.4828968493
 C        -2.0462388846       -4.0106766190       -8.6927477362
 C        -1.5051444518       -5.1726861687       -9.5988082555
 O        -0.5907198741       -5.8910787032       -9.2626127041
 C        -2.0386610471       -5.3121196827      -10.9754433766
 C        -0.9216673528       -5.8288087873      -11.8702911647
 C         0.1811652343       -4.7426467036      -11.8320598282
 O        -0.1144559142       -3.6227431720      -11.4911922208
 C         1.6444303189       -5.1158875325      -12.4141698788
 C         2.2995493305       -4.0665215084      -13.3393393813
 O         2.7934768060       -4.3423356658      -14.4084486272
 C         2.2761848366       -2.6536392533      -12.7758641988
 C         3.6407658639       -2.0255066972      -12.7977912495
 C         3.4975532325       -0.5065412851      -12.5989499149
 O         2.3466075594       -0.0633623085      -12.5279287706
 C         4.7303594750        0.5990860034      -12.5730449165
 C         4.8460516102        1.4495312446      -13.8253625615
 O         5.7912150312        1.3766083403      -14.5561450449
 C         3.7727916506        2.5697872132      -14.3512257535
 C         3.9048716147        3.9413234535      -13.5966942405
 C         5.3361424526        4.5025019786      -13.4419434131
 O         6.3622568916        4.0624834882      -13.8813304215
 C         5.4826808974        5.9318824440      -12.6146408522
 C         5.9686832491        6.9308991797      -13.8112934960
 O         5.2546942834        7.7628635782      -14.2392982526
 C         7.4868354521        6.9587888459      -14.0578005459
 C         7.8178888226        7.4736849653      -15.4778002743
 C         7.2546509494        6.5359162679      -16.5571781175
 O         7.0608498430        5.3107598510      -16.4241973324
 C         7.0608626931        7.2214350341      -17.9534259814
 C         8.3889745066        7.0240859046      -18.8135033226
 O         9.3863188156        6.8033209923      -18.1304926563
 C         8.4904754594        7.3636707357      -20.3219130668
 C         9.3843083422        6.4073525083      -21.1571333034
 C         9.0464313345        4.9053224618      -20.6931026684
 O         8.7305950384        4.6085305444      -19.5700446279
 C         9.2386895480        3.7784548844      -21.7277620011
 C         8.7640507763        2.3747584618      -21.1953373172
 O         7.7216658099        1.8666208605      -21.5339552551
 C         9.7161159461        1.6561306772      -20.1883307965
 C         8.8605638941        0.5057291929      -19.6148583779
 C         7.6904373158        0.9680137120      -18.6031534269
 O         7.9942858716        1.9091350477      -17.9377138124
 C         6.3350098605        0.0583239703      -18.3721106523
 C         5.3427651546        1.1685991999      -18.6034298606
 O         4.9781144606        1.9831216945      -17.7407224467
 C         4.7302261164        1.3669235178      -20.0855644748
 C         6.1589984307       -1.1366037173      -19.4434636286
 C         6.2791426698       -0.4643384936      -16.9031835123
 C         8.3545156676        4.0467236804      -23.0174257697
 C        10.7204767221        3.6307419272      -22.3013357497
 C         5.8202857287        6.6415684834      -18.6014328225
 C         6.6689256125        8.7155673842      -17.9441433026
 C         4.1308334978        6.5252544435      -12.1180645465
 C         6.5528610208        5.7844401548      -11.3775688423
 C         4.5236831624        1.4605648357      -11.2555242543
 C         6.1295912886       -0.0715768792      -12.5160715065
 C         2.5387456438       -5.2246198246      -11.1293875289
 C         1.6170976811       -6.4392845671      -13.1267236116
 C        -1.7399573524       -2.6619814994       -9.3608018015
 C        -1.3823064845       -4.0330438701       -7.2752270850
 C        -6.4072572831       -3.2214059176       -4.5670187670
 C        -5.2479911135       -4.9810675549       -3.2355810777
 C       -10.3862920835      -10.6168741485       -1.4198519645
 C       -10.5200094320      -10.6483649138       -4.0144605194
 C       -13.9488235891       -5.0478970457        1.4525730010
 C       -15.5191496258       -6.7855616993        0.5963121982
 C       -15.5863067894       -2.2460240342       -5.5461741512
 C       -17.5307633207       -1.0110399661       -4.5259178607
 C       -22.2312443124       -5.6768326594       -5.6131015430
 C       -22.2181481265       -4.1432439368       -3.5885754748
 H       -21.7865921115       -8.0376426482       -3.6466942808
 H       -20.0383403557       -8.3437879445       -3.5527620647
 H       -20.9305455415       -7.9267078480       -5.0643046161
 H       -20.0505748163       -4.8637782958       -6.9487863439
 H       -18.9398260174       -5.7528754837       -5.9117738413
 H       -18.6155877015       -2.8610597449       -6.7458521502
 H       -17.5251067348       -4.2477180595       -7.0517166971
 H       -14.2561600566       -2.2063360699       -2.7718098721
 H       -14.5898273354       -3.8896916205       -3.0795643645
 H       -15.4568892181       -2.4848766901       -0.4607689840
 H       -13.8779261837       -3.1364974814       -0.7683476943
 H       -13.5744053922       -7.9551743169       -1.8378179578
 H       -12.9433182675       -8.1865532017       -0.1617068943
 H       -10.7941992152       -7.9317071419       -0.8292517575
 H       -11.1330756809       -6.7276239572       -1.9096880320
 H        -9.5717303316       -7.1950732649       -3.3962731664
 H        -9.0598890152       -8.1034268176       -4.8470070263
 H        -6.8794087907       -7.5298480548       -4.6523996072
 H        -6.8086177799       -7.3359593548       -2.8504719312
 H        -5.1487447111       -3.5056773626       -6.8362235020
 H        -6.1813380833       -4.8370225370       -7.4968087877
 H        -4.4566009072       -5.9162921396       -8.1919334110
 H        -3.3291685426       -5.5090188712       -6.9422163253
 H        -2.4768312064       -4.4043323493      -11.2856872247
 H        -2.9001390100       -6.0007447400      -10.9057338592
 H        -1.1862448682       -5.9008957208      -12.8927424091
 H        -0.6134557964       -6.8290478546      -11.5062447958
 H         1.7462967769       -2.5184690854      -11.8569232244
 H         1.6839143684       -2.1676084403      -13.5235225432
 H         4.1198442208       -2.0921885905      -13.7881902056
 H         4.3678982246       -2.4609964183      -12.0409162096
 H         2.7580648524        2.1960870746      -14.3365548328
 H         3.9570439392        2.8135644792      -15.3459198801
 H         3.4895439814        3.9603242147      -12.5265819531
 H         3.1018754753        4.5523590226      -14.1846707690
 H         7.8896343943        5.9474805728      -13.9063752596
 H         7.8200431511        7.5969297853      -13.2987287838
 H         8.9716066929        7.4874714851      -15.6090172463
 H         7.6546205424        8.5727474602      -15.6354510442
 H         8.9196937636        8.3509766178      -20.3488145079
 H         7.5220423641        7.4890709880      -20.8072793198
 H        10.4520873226        6.5057987558      -20.9503477777
 H         9.2704808473        6.5586137386      -22.2802203529
 H         9.8401025206        2.3594647490      -19.3713972562
 H        10.5433142630        1.1664678513      -20.5910394226
 H         9.4623424527       -0.0511673038      -18.8499105659
 H         8.5350245797       -0.1891730878      -20.3178861635
 H         4.3315374234        0.3738909035      -20.4351474670
 H         5.4084733944        1.7758419483      -20.8165402161
 H         3.9624083404        2.1203854176      -20.0611526372
 H         5.1836580963       -1.5496607608      -19.4227059977
 H         6.8670208299       -1.8078676531      -19.0736998195
 H         6.4443429068       -0.8525791017      -20.4532861773
 H         7.1833234307       -0.8664086085      -16.5871945747
 H         5.4628645046       -1.2358324306      -16.9085429698
 H         5.9288674071        0.4086118229      -16.2916959431
 H         8.7316878385        3.5108660233      -23.8526004279
 H         8.1985365914        5.1317254478      -23.2538313898
 H         7.3417513422        3.7520811868      -22.7209326764
 H        10.7837412494        3.2886445977      -23.3913358511
 H        11.2208036477        2.7994175671      -21.7305923239
 H        11.4424110244        4.4760555896      -22.3180968824
 H         5.0665406652        6.5427502627      -17.8999766803
 H         5.9265857092        5.6581293703      -18.9530320196
 H         5.3078820933        7.1369215138      -19.4388655896
 H         7.5016671461        9.3730446208      -17.6503431152
 H         5.7990258195        8.9214548924      -17.3561238745
 H         6.4549070355        8.9571285206      -18.9830282935
 H         4.3790572375        7.4399373672      -11.6491561724
 H         3.8389453256        5.9043089002      -11.2708596437
 H         3.4936382130        6.7009322930      -12.9594316306
 H         6.2056438854        4.9553964154      -10.7742004700
 H         6.2817538419        6.5815006753      -10.7044864966
 H         7.6887426970        5.6501840331      -11.5717648576
 H         5.1984476773        2.2866463606      -11.2088935644
 H         4.6100330000        0.8572608578      -10.3360187202
 H         3.6106467231        1.8918274547      -11.3289731380
 H         6.3097656724       -0.5928067469      -11.5595286519
 H         7.0077711317        0.4949860501      -12.6327314154
 H         6.1957972948       -0.9159843261      -13.1601429774
 H         3.0787952759       -6.2085811447      -11.0470842167
 H         1.9045276219       -5.1731379162      -10.2323071187
 H         3.2278433397       -4.3890032726      -11.0310264331
 H         1.5072717878       -7.2545146961      -12.3751139218
 H         2.5711492463       -6.7018028156      -13.6748099389
 H         0.7353991440       -6.4855074788      -13.7829439545
 H        -1.9515278999       -1.8082024992       -8.7414081987
 H        -2.3125681706       -2.6761025570      -10.2981986400
 H        -0.7485972908       -2.5672560903       -9.6822221990
 H        -1.0792071512       -5.0238894970       -7.0296932803
 H        -2.1262912593       -3.6159814588       -6.5655458984
 H        -0.4845752879       -3.3730054661       -7.1629091103
 H        -7.3958931009       -3.0096747214       -5.0910564802
 H        -5.5713947149       -2.7848915246       -5.0900835355
 H        -6.4966322245       -2.7453388826       -3.5933261788
 H        -5.6066014507       -4.6258186154       -2.2635160779
 H        -4.2893894058       -4.4796784213       -3.3991621489
 H        -4.9591698956       -6.0621358747       -3.1293975490
 H       -11.4364761634      -10.8779190698       -1.0664353119
 H        -9.9325955477      -10.1063708754       -0.6161128537
 H        -9.8862804119      -11.5409241164       -1.5889696834
 H       -11.3094087503      -11.3728629516       -3.9761925189
 H        -9.4943518804      -11.0867481156       -4.1338136332
 H       -10.7133876092       -9.8650793873       -4.7215761834
 H       -14.3181378929       -4.0540607742        1.6945515932
 H       -12.8789844744       -4.8500519947        1.2619995228
 H       -14.0933699514       -5.5534451693        2.4038390920
 H       -16.1326349408       -7.1144362418       -0.2501584551
 H       -16.0634393460       -6.3324161476        1.4204178716
 H       -15.0084112604       -7.7352580610        1.0178234945
 H       -14.9381130218       -3.1265727111       -5.4468850867
 H       -14.9483751923       -1.4546581172       -5.3343869007
 H       -15.9851079171       -2.0182415965       -6.5529824497
 H       -18.4263660910       -1.1803106377       -4.0157414535
 H       -17.6862602781       -0.6283060435       -5.5706691632
 H       -17.0491743253       -0.2959293519       -3.8659869387
 H       -21.7175828819       -6.1566282262       -6.4002981890
 H       -22.8521272565       -4.8783857637       -6.1132995440
 H       -23.0824635633       -6.4015283400       -5.3105095874
 H       -22.3191815043       -3.2283849914       -4.0787831080
 H       -21.7247075766       -3.9677220085       -2.6130372041
 H       -23.2611910502       -4.5183634484       -3.4130159655
 Na      -18.3176801159       -4.3006066658       -2.4048993185
 Na        6.5927851668        3.0852351566      -16.3337366344
