232

 C        -0.6443068217        6.9239007787      -20.1677634698
 C        -0.4166719926        5.7167240554      -21.0673433184
 O        -1.1550094664        4.7480175731      -20.8998226484
 C         0.7204882174        5.7420237105      -22.1048050223
 C         0.0460130041        5.2435139699      -23.4943894928
 O        -0.6868778644        4.2770304757      -23.4668037602
 C         0.1942168651        6.0950400028      -24.7654889913
 C        -0.0517672074        5.1337107850      -25.9924359825
 C        -1.4842352096        4.5751257786      -25.9925033298
 O        -2.4896129105        5.2853354265      -26.0738637222
 C        -1.7472299123        2.9369432571      -26.1434479619
 C        -2.6742782767        2.5162743933      -24.9556679900
 O        -2.3027784164        1.6601163939      -24.1361348351
 C        -3.9943863584        3.1473738338      -24.7197932642
 C        -5.0381247795        2.1872056216      -24.1283608711
 C        -4.8813965378        2.0159139167      -22.6178716055
 O        -4.5760231124        2.9368535484      -21.8176065185
 C        -5.0735977960        0.5348192658      -22.0434961615
 C        -3.8402023552        0.2361336693      -21.1234310763
 O        -2.9489686658        1.0340971579      -20.7839813993
 C        -3.8204655283       -1.0300953185      -20.3142155561
 C        -2.9907459690       -0.8054567391      -19.0278796784
 C        -3.7645782078        0.1371676466      -17.9629694491
 O        -4.9191257128        0.4468012873      -17.9927814181
 C        -2.8564542366        0.6523773408      -16.7020634825
 C        -2.5566415639       -0.6428921116      -15.7297014276
 O        -1.8017622697       -1.4798403713      -16.1988504462
 C        -3.1714512370       -0.8864853579      -14.3826380601
 C        -2.4978560146       -2.0769176523      -13.6261418829
 C        -3.0502878829       -2.1783342901      -12.2720219799
 O        -3.6582753312       -1.1771852941      -11.8053655267
 C        -2.9110974099       -3.5276336052      -11.5944287909
 C        -3.7886376866       -3.3818289115      -10.1993149103
 O        -3.2661067539       -3.5869986280       -9.1058745065
 C        -5.3538567281       -3.3083078296      -10.1958401104
 C        -5.8639465890       -3.3715495032       -8.7336052746
 C        -5.8605095539       -4.8701580380       -8.3270357670
 O        -5.6905685401       -5.7915206871       -9.1349221201
 C        -5.8697688689       -5.2742496654       -6.7547338936
 C        -4.3253677881       -5.2395307192       -6.1914162814
 O        -4.0987253573       -4.5542598646       -5.2220044866
 C        -3.3334128857       -6.1571296633       -6.9207393251
 C        -1.8758251977       -6.1209286100       -6.4294319770
 C        -1.7269334126       -6.8112130293       -5.0596052278
 O        -2.7279953486       -7.2219350140       -4.5099589684
 C        -0.2830134370       -6.9912796232       -4.3396258934
 C         0.1724352508       -5.5375429266       -3.9160147162
 O        -0.6847912516       -4.9226874090       -3.2437053917
 C         1.6087741043       -4.9129310726       -4.0512359676
 C         1.7434668069       -3.5528023613       -4.8180549575
 C         1.1027095599       -3.5139153963       -6.2156380296
 O         0.5209399937       -4.5220392235       -6.5951188214
 C         1.1420745268       -2.2114554871       -7.0745365301
 C         0.2145466524       -1.0721724710       -6.3974403971
 O         0.7530662065       -0.2241109387       -5.6779876862
 C        -1.2829339435       -1.1150040901       -6.5920709753
 C        -1.9700354090       -0.2844310911       -5.5438704339
 C        -2.1531677264       -0.8892029972       -4.2020727840
 O        -1.8222252874       -2.0564899794       -4.1282839435
 C        -2.6499980310       -0.0636158439       -2.9803534623
 C        -3.7435870689       -0.8448274297       -2.2887875938
 O        -3.7141728036       -2.0448159944       -2.1324426375
 C        -4.8550238558       -0.0635529888       -1.6319761904
 C        -5.4710515311       -0.7338973389       -0.3610675455
 C        -4.5853684950       -0.4484799170        0.7793793171
 O        -3.5140838716        0.1256593781        0.6646357581
 C        -4.9460215450       -1.1239225423        2.0823091960
 C        -4.8798747072       -2.6955305899        1.9779293753
 O        -5.8859188829       -3.3737232245        1.7620426026
 C        -3.3695392645       -3.3278350476        1.9976283095
 C        -3.5141986171       -4.8439590256        1.6325137777
 C        -3.7041140613       -5.0600609456        0.0624453862
 O        -2.7629203211       -4.6056943487       -0.6272061058
 C        -4.9242690920       -5.9221177201       -0.5369576142
 C        -5.6555871020       -5.0216953957       -1.5396596554
 O        -5.1049216227       -4.3890849640       -2.4180382587
 C        -7.1122003219       -4.8598167150       -1.3369421457
 C        -7.8709101253       -3.8715578376       -2.3408569370
 C        -8.4428126234       -2.5620051609       -1.7955373330
 O        -8.0752361219       -2.0807680569       -0.7632477390
 C        -9.5410235029       -1.6942080914       -2.6261442667
 C        -8.7942454037       -0.6036091921       -3.5135778008
 O        -7.7337675466       -0.1306744481       -3.2218343328
 C        -9.6141274664        0.0145968720       -4.6263834320
 C       -10.4640847342       -2.6722689612       -3.3687497366
 C       -10.3174048871       -0.9087863223       -1.5927134379
 C        -4.3750334609       -7.1627861341       -1.2894207709
 C        -5.8795364809       -6.4742138651        0.6136600481
 C        -3.9973291433       -0.7168455863        3.2157121393
 C        -6.3775956681       -0.7478771741        2.5230900310
 C        -1.4136913820       -0.2140983367       -1.9789109285
 C        -2.8902123248        1.5253493906       -3.1905639917
 C         2.5558982053       -1.7279801386       -7.1536380647
 C         0.7798042658       -2.5603937954       -8.4799756344
 C        -0.5918058372       -7.8741150164       -3.1378800054
 C         0.7058547967       -7.6799986058       -5.4004296319
 C        -6.7684979299       -4.2811131334       -5.9971956052
 C        -6.4499076938       -6.6739793121       -6.7660014953
 C        -3.5484381549       -4.6938358632      -12.4400552988
 C        -1.3640898202       -3.8083104696      -11.3779957618
 C        -1.6121699737        1.2330414176      -17.3522224350
 C        -3.7166530856        1.7091434938      -15.9484195313
 C        -6.3333794635        0.7174858869      -21.1560888175
 C        -5.2218898821       -0.6502054856      -23.0305538777
 C        -2.6265749099        2.8084432384      -27.4805554139
 C        -0.4715384984        2.1416422110      -26.2264606966
 C         1.5117256438        7.1368500216      -22.2212001719
 C         1.6914053707        4.5867096022      -21.7893160282
 H         0.0956414180        7.0874758315      -19.3690174056
 H        -1.6335167261        6.9502300929      -19.6917950597
 H        -0.6538707853        7.8811811600      -20.7641092449
 H         1.1166827335        6.6166125774      -24.8308766140
 H        -0.6150836661        6.8700820495      -24.6608250908
 H         0.8338812710        4.5134650080      -26.2043279055
 H        -0.1356460137        5.8726485000      -26.8401968722
 H        -4.2741218396        3.7641495102      -25.7079030002
 H        -3.7300330799        3.9089149002      -23.9382627590
 H        -5.0253188491        1.2109900178      -24.5823452959
 H        -6.0039937160        2.5908935679      -24.1705665035
 H        -3.2447532406       -1.8344510305      -20.8747340547
 H        -4.8464198976       -1.5535234553      -20.2120905275
 H        -2.0800200972       -0.3397474983      -19.2839156181
 H        -2.7276011837       -1.7079231744      -18.5361889914
 H        -4.1882789341       -1.1869733092      -14.6650523857
 H        -3.1179927217        0.0936258109      -13.8187869857
 H        -1.4233399701       -1.9670435328      -13.4716733199
 H        -2.7499430925       -3.0068970442      -14.2097052445
 H        -5.6042402750       -4.0351662621      -10.9693821745
 H        -5.6011661309       -2.3184221642      -10.5674590611
 H        -6.9140614049       -3.0884117691       -8.6102814275
 H        -5.2422267885       -2.7722827771       -8.0349393348
 H        -3.4151008768       -5.9336851953       -7.9753951709
 H        -3.6590272032       -7.2041850688       -6.8046895799
 H        -1.4959675759       -5.0973607441       -6.5188537770
 H        -1.3322223116       -6.7723638154       -7.0971303427
 H         2.2576451036       -5.5312319874       -4.5877950480
 H         1.8772200819       -4.7412219113       -3.0491957452
 H         2.8305892683       -3.2926916800       -4.9263664982
 H         1.2845199983       -2.7154509291       -4.2899455356
 H        -1.6087595728       -2.1911105525       -6.5915084551
 H        -1.5320036293       -0.7204951759       -7.6008256615
 H        -3.0839831162       -0.1878619937       -5.9473458973
 H        -1.5708250452        0.7882188778       -5.5307994928
 H        -5.7479283773       -0.1392294109       -2.3203934402
 H        -4.6434206825        0.9714846351       -1.5930576633
 H        -5.4112426014       -1.8083706774       -0.5752239393
 H        -6.4870279994       -0.5082651984       -0.3374987567
 H        -2.8582888972       -3.3481841237        3.0264359426
 H        -2.7788531305       -2.7721275657        1.2831323759
 H        -4.4058506901       -5.1894501523        2.1874790645
 H        -2.5797858926       -5.4037547577        1.9395353515
 H        -7.2325407979       -4.4977958234       -0.3039618342
 H        -7.5541195350       -5.8751010342       -1.3768819256
 H        -8.7101983658       -4.3351535456       -2.8017507354
 H        -7.1775134015       -3.6744772294       -3.0981283482
 H        -8.9784837371        0.6739936328       -5.2671011927
 H       -10.4573209565        0.6449368211       -4.4236836552
 H       -10.0223255815       -0.8104020040       -5.2829564005
 H        -9.8853613644       -3.2802066596       -4.0472306921
 H       -11.2883292988       -2.2459469179       -3.8967605685
 H       -10.9774259950       -3.4128018386       -2.6997496928
 H       -11.0558381671       -1.5736039532       -1.1241747314
 H       -10.8665364310       -0.1859962802       -2.1403336841
 H        -9.6599167628       -0.5129808786       -0.8379251697
 H        -5.1314121374       -7.6740370016       -1.8569303200
 H        -3.8827382895       -7.7972849784       -0.5369095929
 H        -3.5590340651       -6.8912965660       -1.9849116112
 H        -6.6062225824       -7.1529403106        0.1454596457
 H        -6.4067340521       -5.7085609433        1.0570981514
 H        -5.2993310589       -7.1131770086        1.3372423578
 H        -4.4968241196       -1.2585321400        4.1131526117
 H        -4.0700246395        0.3763526024        3.3595705338
 H        -2.9741225137       -1.0539744896        3.1304230367
 H        -6.6958279108        0.2434741552        2.1129531277
 H        -6.4395352686       -0.5793984039        3.6214081410
 H        -7.0343254288       -1.5363669138        2.2270685850
 H        -0.6571155602        0.5046720597       -2.2287070978
 H        -1.1512399055       -1.2763468456       -1.9993152484
 H        -1.6332049184        0.0328353875       -0.8776818058
 H        -1.9642997907        1.9662079539       -3.6432116244
 H        -2.8390823095        1.9285428856       -2.2060371633
 H        -3.7233750473        1.8005666339       -3.8556708902
 H         2.6742924040       -1.1432550791       -8.0306343719
 H         3.2452752506       -2.5780367169       -7.2160353370
 H         2.8456114537       -1.1304967565       -6.2916773713
 H        -0.1516291484       -3.1497803246       -8.5244666876
 H         1.5777227157       -3.2196119950       -8.9007664902
 H         0.7322095521       -1.6619518060       -9.1463523278
 H         0.4334071025       -7.9122467040       -2.7519743719
 H        -0.9884415868       -8.8748064387       -3.2637049684
 H        -1.2873290691       -7.3276771714       -2.4151312769
 H         1.6536289969       -7.1925365814       -5.5984741572
 H         0.2798223533       -7.8812801904       -6.3460418217
 H         0.9671995376       -8.7468473838       -5.1945307904
 H        -7.8010148874       -4.5976302274       -6.1654773329
 H        -6.5988109308       -3.2342361541       -6.2676849597
 H        -6.5630914485       -4.3667470583       -4.9632957579
 H        -6.2345425348       -7.2934434257       -5.9112543000
 H        -5.9924799854       -7.2814593579       -7.5452808739
 H        -7.4943470163       -6.6882093274       -6.9047062466
 H        -3.6004743539       -5.5644854713      -11.7831240221
 H        -2.9081255053       -4.8844228923      -13.2022467152
 H        -4.5485994836       -4.4228082436      -12.9020313734
 H        -1.0937491519       -4.5032949514      -10.5535826527
 H        -0.8372480357       -2.8895775030      -11.1694639398
 H        -1.0470531390       -4.3613780363      -12.2317445888
 H        -1.8933855875        1.3578671930      -18.4345073349
 H        -0.7747812090        0.6362302079      -17.4386905871
 H        -1.3500658859        2.1716726308      -16.8498931971
 H        -4.7867145302        1.3777799799      -15.9293207662
 H        -3.4644726125        2.6358908298      -16.5110981979
 H        -3.3573217958        1.8679716891      -14.9179972101
 H        -7.2161939515        0.9630035598      -21.7867585906
 H        -6.4042461519        1.6209637499      -20.4861918434
 H        -6.4677287805       -0.2285045648      -20.6427890153
 H        -6.0933413033       -0.5161131522      -23.6333285276
 H        -5.3707270740       -1.5994754117      -22.4909454734
 H        -4.4216320910       -0.7864427775      -23.7882519248
 H        -3.3456733636        3.6669171831      -27.4916896884
 H        -3.2740739964        1.8813580436      -27.6318140323
 H        -1.8641971905        2.7575500370      -28.2556435004
 H         0.2305363810        2.6295934960      -26.9330608007
 H        -0.5361754631        1.1067569859      -26.5978971715
 H         0.0942745390        2.2795503174      -25.3658744089
 H         2.0720450618        7.3570564273      -21.3434625943
 H         0.7815224904        7.9222761466      -22.3135928924
 H         2.1890780328        7.1106028348      -23.1211839847
 H         1.2997657791        3.6570014064      -21.7601203070
 H         2.1496673416        4.6489795668      -20.8209312907
 H         2.4680427062        4.6568252373      -22.5882436258
 Na       -2.9353199392       -4.0928233139       -3.1102762867
 Na       -2.1433231556        2.9580565765      -22.1575598887
