232

 C        -0.6626873882        6.8883379992      -20.2761728647
 C        -0.3772958556        5.7242375921      -21.1410277732
 O        -1.1126734930        4.7468397578      -20.9887220570
 C         0.6829571940        5.7908474261      -22.2925703535
 C         0.0048212960        5.2267843425      -23.6052035286
 O        -0.6579245923        4.1762267490      -23.6490594965
 C         0.2894514561        5.9861435757      -24.9703155055
 C        -0.0510157816        5.0865618718      -26.1154026170
 C        -1.5511444992        4.5741658532      -25.8665746060
 O        -2.4069516539        5.3442568586      -25.4977279280
 C        -1.8285152534        2.9824240484      -26.1458005769
 C        -2.6971984920        2.5899607686      -24.9685686689
 O        -2.3993953690        1.7313097143      -24.1864268045
 C        -4.1607621446        3.1524622756      -24.8389389729
 C        -5.2261997237        2.2029836079      -24.3633905049
 C        -5.0411221504        2.0581875805      -22.7770976741
 O        -4.5511277575        2.9822982580      -22.1922788935
 C        -5.2967699633        0.7098659323      -21.9716628432
 C        -4.0294911629        0.5221159519      -20.9338296525
 O        -3.1324653136        1.2985604265      -20.7455739119
 C        -3.9093048302       -0.9029128184      -20.3487996551
 C        -3.1655011017       -0.9776979121      -18.9922416522
 C        -3.7475404498        0.0326940452      -17.9838051479
 O        -4.9186313717        0.3216221768      -18.1834932540
 C        -2.9439046818        0.5679611843      -16.7705859252
 C        -2.4444214159       -0.6619796293      -16.0370070861
 O        -1.7372858806       -1.4752525706      -16.5770492111
 C        -2.9703501306       -0.7541708208      -14.4986971688
 C        -2.5451524421       -2.0016814550      -13.7921517350
 C        -3.0190882879       -2.1162323761      -12.2536951552
 O        -3.2901838653       -1.1796448546      -11.5998662344
 C        -2.9188615015       -3.5302675445      -11.5532972766
 C        -3.6599225225       -3.4858495832      -10.1446822855
 O        -3.0658867603       -3.6931428587       -9.1203360359
 C        -5.1596474710       -3.2940870461      -10.1929697613
 C        -5.9191508437       -3.3873900907       -8.8917021632
 C        -5.7499868832       -4.9424625350       -8.3539516634
 O        -5.4974267250       -5.7052820108       -9.2233581763
 C        -5.7160325175       -5.2733399779       -6.7918284450
 C        -4.3016659421       -5.2888376994       -6.2139330928
 O        -3.9362405887       -4.6891293079       -5.2096186446
 C        -3.2783948890       -6.1275074226       -6.9538473604
 C        -1.9262115936       -6.1174044973       -6.1363784869
 C        -1.7907419699       -6.8349492253       -4.7524140600
 O        -2.6560249147       -7.1818970056       -4.0340571140
 C        -0.2713757581       -6.9843238207       -4.2997705447
 C         0.1218168258       -5.4363901914       -4.1353530443
 O        -0.6039681667       -4.5741165797       -3.7864181421
 C         1.5647211592       -5.0171035761       -4.3369416479
 C         1.6315450634       -3.5609779625       -4.7790799207
 C         1.2179028755       -3.5060437802       -6.2494842955
 O         0.5999892625       -4.4125825186       -6.7454814088
 C         1.1951736262       -2.1022124756       -7.0714132976
 C         0.4094155042       -1.0410844788       -6.4059441388
 O         0.8265405912       -0.1697409888       -5.6800158624
 C        -1.1359778553       -0.9906577757       -6.5963497072
 C        -1.8271214995       -0.1342156600       -5.4583145952
 C        -2.0420145613       -0.9013797420       -4.1861139716
 O        -1.9413564310       -2.1038153744       -4.2949425193
 C        -2.5506942232       -0.1498667944       -2.8352505146
 C        -3.7569305729       -0.8774822219       -2.1489002743
 O        -3.7403010659       -2.0949713504       -2.0299453623
 C        -4.9382126431       -0.1728391441       -1.6828092942
 C        -5.5010082290       -0.7740674864       -0.3712900561
 C        -4.6024559043       -0.6084222589        0.7921436988
 O        -3.5503699753       -0.0337355416        0.6828844714
 C        -5.0116801154       -1.2630724180        2.1779849674
 C        -4.9820612702       -2.8753412282        1.9443506446
 O        -5.9214860536       -3.3577739058        1.3963681604
 C        -3.5366067280       -3.5011861077        2.0518569201
 C        -3.5748001974       -4.9345643910        1.6494238904
 C        -3.8075112041       -5.0943041154        0.1259986278
 O        -2.9317127284       -4.7291215207       -0.6187384410
 C        -5.0129788042       -5.9431702219       -0.5142135190
 C        -5.8214943586       -5.0306056836       -1.4682932900
 O        -5.2546873743       -4.6253210637       -2.4674925758
 C        -7.2080487346       -4.5270195375       -1.2657981868
 C        -7.6937993384       -3.5776131424       -2.4122727953
 C        -8.3858292043       -2.3793868392       -1.7407833143
 O        -8.0142669931       -2.1348132505       -0.6035129547
 C        -9.5707429270       -1.6888495860       -2.4749322302
 C        -8.9083754391       -0.7055183954       -3.4896761927
 O        -7.6829660509       -0.5604263107       -3.4430650435
 C        -9.6329273305       -0.1131325538       -4.6293131964
 C       -10.5655535955       -2.5794490800       -3.3258161401
 C       -10.4061799074       -0.8857444424       -1.4398365626
 C        -4.3574939514       -6.9702060058       -1.4110140116
 C        -5.8310565888       -6.5646281262        0.5951838733
 C        -4.0685238352       -0.8038426527        3.2297850018
 C        -6.4533927369       -0.9219968254        2.5608228219
 C        -1.3419624083       -0.2544380280       -1.8070596424
 C        -2.9007617695        1.3608958255       -3.2400718179
 C         2.7104991051       -1.6101914938       -6.9411514664
 C         0.7379587035       -2.3785241747       -8.4540154233
 C        -0.0541775799       -7.6183876297       -2.8332045019
 C         0.5695188465       -7.6779105933       -5.3710419840
 C        -6.5072685541       -4.2474237380       -5.8512791433
 C        -6.2402700330       -6.6561465438       -6.5915502439
 C        -3.5780415014       -4.8026844133      -12.3697479841
 C        -1.4078112968       -3.7515807682      -11.1644885484
 C        -1.5493644174        1.1706164708      -17.1317208889
 C        -3.7992224151        1.6548125276      -16.0021263750
 C        -6.4952515135        0.8811076834      -20.9383265241
 C        -5.5058104236       -0.4869866468      -22.8408116220
 C        -2.7858305715        2.7210708133      -27.2920661252
 C        -0.6342386943        2.0276996309      -26.2195480289
 C         1.3771940734        7.1734174111      -22.4601269628
 C         1.7945233025        4.7832754744      -21.8677384507
 H         0.0929333180        6.9082334921      -19.4783657234
 H        -1.6475806730        6.8316678494      -19.7946713116
 H        -0.6122935624        7.8670811383      -20.7147151872
 H         1.2759903551        6.5263120887      -24.9967373719
 H        -0.4337398927        6.7630201655      -25.0163526994
 H         0.6226763118        4.1815339895      -26.0095539796
 H         0.2082756052        5.5707604746      -27.0402366707
 H        -4.4669274600        3.6258728562      -25.7078179048
 H        -4.1382182854        3.9467581227      -24.1253736269
 H        -5.2607439935        1.2276857079      -24.9193713035
 H        -6.1857284512        2.8494682174      -24.4798915033
 H        -3.5023381893       -1.5880339038      -21.0620134772
 H        -4.8513557466       -1.2851223673      -20.1824179245
 H        -2.0385782958       -0.8721852058      -18.9998909993
 H        -3.4393841220       -2.0004228874      -18.5565652471
 H        -4.0876816112       -0.6601667712      -14.5295707432
 H        -2.5900054097        0.1350168996      -14.0814739540
 H        -1.4282985959       -2.0272667626      -13.6861891964
 H        -2.8727616732       -2.8461969453      -14.3815511153
 H        -5.5095529614       -4.1126319508      -10.7616328889
 H        -5.4459482637       -2.3932102593      -10.8122356499
 H        -6.9273455661       -3.1311001562       -9.1343233611
 H        -5.4713256213       -2.8582690472       -8.0298429437
 H        -3.1492522527       -5.6649668405       -7.9528120398
 H        -3.6500954797       -7.1454810328       -7.0848311070
 H        -1.9143373557       -5.0538353750       -5.7877894294
 H        -1.0462187313       -6.3429364476       -6.8258023495
 H         2.0776316278       -5.6464902835       -5.1254346113
 H         2.0180962009       -4.9546749655       -3.2981097718
 H         2.5704156134       -3.0275411234       -4.6407190425
 H         0.8575784664       -3.0317230615       -4.1667549665
 H        -1.6720844085       -1.9217950573       -6.7143019987
 H        -1.1718527014       -0.5206171289       -7.5809123119
 H        -2.7422144133        0.1811082731       -5.7940039713
 H        -1.2691747383        0.7519146377       -5.2918784447
 H        -5.7195245780       -0.1853876409       -2.4330021714
 H        -4.7026358432        0.9275202108       -1.5122668014
 H        -5.7800173168       -1.8373572991       -0.5132657343
 H        -6.4736871917       -0.1537526013       -0.2353125456
 H        -3.1011102638       -3.3987860680        3.0145400667
 H        -2.9647453326       -2.9574493992        1.2309637138
 H        -4.3638666779       -5.4233390191        2.2302114941
 H        -2.6384614909       -5.4599572021        1.8055153980
 H        -7.4022106313       -4.0744702876       -0.2512684939
 H        -7.8347162868       -5.4344238216       -1.3495297033
 H        -8.3826483824       -4.2149035905       -2.9923964393
 H        -6.9490766476       -3.1206617445       -3.1222234923
 H        -9.4753642079        0.9405822087       -4.6753179985
 H       -10.7582745726       -0.1479342095       -4.5349664320
 H        -9.4029032684       -0.5151917806       -5.5703748366
 H       -10.2341937894       -2.7350823981       -4.3855372515
 H       -11.5066506306       -2.0386747874       -3.3684155208
 H       -10.8182657888       -3.5586196842       -2.9776812723
 H       -11.1979926389       -1.4561091299       -0.9766847222
 H       -10.7671505068       -0.0126388689       -1.9859346331
 H        -9.7053271417       -0.5922103046       -0.7107614492
 H        -5.0858073833       -7.7413476016       -1.6389863993
 H        -3.5445205947       -7.4214115210       -0.9232521492
 H        -3.9260723143       -6.5588471668       -2.3137960124
 H        -6.7125092924       -7.1788932372        0.3588796328
 H        -6.0502513013       -5.7070797794        1.3744926018
 H        -5.1234752279       -7.2502181244        1.0317191711
 H        -4.0042316369       -1.4435113354        4.0236012831
 H        -4.2985115108        0.2087458039        3.4552519727
 H        -3.0628631862       -0.7922819620        2.7812774482
 H        -6.5308258190        0.0849715666        2.9563872584
 H        -6.6785478892       -1.5146668141        3.4351521344
 H        -7.2085680982       -1.0735556144        1.7078271056
 H        -0.5430436697        0.3936112947       -2.1874091291
 H        -1.1234286730       -1.2978310013       -1.7065323779
 H        -1.5507098048        0.0574048601       -0.8511112979
 H        -2.0087582802        1.7923064854       -3.6399951567
 H        -3.0724694071        1.9707611838       -2.3378788294
 H        -3.6449145060        1.3526555344       -4.0162492245
 H         2.8022813609       -0.6201862097       -7.4274816171
 H         3.4234655911       -2.2986902522       -7.4170273949
 H         2.9482807473       -1.4181909252       -5.8817938833
 H        -0.2669046247       -2.8212328998       -8.3227337463
 H         1.3303503418       -3.1350551227       -8.9682429367
 H         0.6683496352       -1.4728355868       -9.0589215083
 H         0.9645823866       -7.6780238746       -2.4467177316
 H        -0.4661656376       -8.6505514073       -2.8568421409
 H        -0.7473964691       -7.0753155072       -2.2609791627
 H         1.6083968973       -7.3815180836       -5.1312863911
 H         0.4362802223       -7.5712644470       -6.4626235580
 H         0.5578925110       -8.7314062308       -5.4365145562
 H        -7.5843699803       -4.3124498205       -6.1462235588
 H        -6.1343637259       -3.2231232466       -6.0828687300
 H        -6.4186075784       -4.4616342071       -4.7603928727
 H        -5.5888637631       -7.5205248512       -6.4392091462
 H        -6.7869364642       -7.0456099838       -7.4530768143
 H        -6.9446087233       -6.6723849552       -5.6864071541
 H        -3.9388825045       -5.5226786934      -11.6825363110
 H        -2.8397853798       -5.1731677105      -13.1832323484
 H        -4.3331445312       -4.4369100513      -12.9760469013
 H        -1.2832071029       -4.6625266006      -10.6560682890
 H        -1.1109622898       -2.9679742340      -10.4449386146
 H        -0.8143883555       -3.9370519759      -12.0622988361
 H        -1.4862371127        2.2026775870      -17.4237161123
 H        -1.1825366590        0.5875989907      -18.0331197089
 H        -0.9163109775        0.9983140633      -16.2303872397
 H        -4.8073648502        1.2829758281      -15.8231909638
 H        -3.8293120658        2.5640371682      -16.5622985386
 H        -3.2797095222        1.9370337039      -15.0954564185
 H        -7.3528054962        1.2059909548      -21.4490421655
 H        -6.3528903658        1.6676226957      -20.2609685391
 H        -6.6930104639       -0.0556875845      -20.3292115544
 H        -6.2394400537       -0.3330543034      -23.6262909334
 H        -5.8643507277       -1.2828286127      -22.2216985382
 H        -4.6627382228       -0.8078831545      -23.3887316600
 H        -3.6635275392        3.3751418054      -27.3083675724
 H        -3.1827722638        1.7053668832      -27.1617175060
 H        -2.1869478144        2.6193406191      -28.1939367975
 H        -0.2071754030        1.8787607082      -27.1927706158
 H        -0.9432297138        0.9963204364      -25.9423162194
 H         0.3111773274        2.2597326926      -25.5832923898
 H         1.3900802449        7.6302773377      -21.4361236917
 H         0.8542673761        7.8372929618      -23.1969267392
 H         2.3768500440        7.0591463709      -22.7714109335
 H         1.2531056147        3.7952891261      -21.5737440586
 H         2.3272171825        5.0916917598      -20.9594636297
 H         2.5501834422        4.4906425306      -22.5621554462
 Na       -2.8211546860       -4.2331400492       -3.0370312747
 Na       -2.2021305519        2.9064265151      -22.1179300645
