232

 C        -0.5987328250        6.9621340321      -20.3026641716
 C        -0.5309275099        5.7478549632      -21.2262061208
 O        -1.0777318219        4.6882878932      -20.9948070960
 C         0.6188981669        5.7290828928      -22.3250469102
 C         0.0995111208        5.1910121869      -23.6672760100
 O        -0.5765281349        4.1631146859      -23.7578544486
 C         0.3645514735        5.9343341079      -25.0313037213
 C        -0.1852960315        5.0882813721      -26.0981236092
 C        -1.5472354013        4.4664430148      -25.8666188152
 O        -2.3654854206        5.2455732751      -25.4038930811
 C        -2.0008010511        2.9227984834      -26.1739283372
 C        -2.8674499613        2.5728476817      -24.9795398162
 O        -2.4293867395        1.7948765014      -24.1113713832
 C        -4.3049221351        3.2037806884      -24.9325544792
 C        -5.1843247019        2.1522104035      -24.2702101405
 C        -5.0564524428        2.1251039406      -22.7654085865
 O        -4.6246985687        3.1518924236      -22.1972784116
 C        -5.3028523347        0.8280346183      -21.9079357138
 C        -4.0498980109        0.4989041146      -21.0168628507
 O        -3.1672231777        1.2893382222      -20.6338034374
 C        -3.9828333042       -0.9458516088      -20.4510780320
 C        -3.1928321146       -1.0152759231      -19.1194076577
 C        -3.7313812030        0.0686108894      -18.0551784386
 O        -4.8694919620        0.4289162750      -18.0518178674
 C        -2.8758771996        0.5409605430      -16.7891598905
 C        -2.5454391012       -0.6776680307      -15.9837341070
 O        -1.8658355526       -1.5109117646      -16.5522269996
 C        -2.8509996024       -0.8366110438      -14.4371131381
 C        -2.5944859007       -2.1741624050      -13.7391279975
 C        -2.8796020313       -2.1795643786      -12.2470740577
 O        -3.1775834469       -1.1621650725      -11.6330726096
 C        -2.8168195234       -3.5066348861      -11.4916464185
 C        -3.6625953136       -3.4594045393      -10.1738393007
 O        -3.1161268307       -3.6959761120       -9.0934199915
 C        -5.3043960056       -3.1373304357      -10.1302881145
 C        -5.8616728746       -3.4828021551       -8.8012306490
 C        -5.5929808138       -4.9657551708       -8.3051253637
 O        -5.4301549859       -5.8505353811       -9.1083512944
 C        -5.7128357401       -5.2485919830       -6.8248885875
 C        -4.1766247754       -5.2804757771       -6.1882725954
 O        -3.9324956859       -4.6325831475       -5.1798061334
 C        -3.0900947878       -6.1243507302       -6.8617294565
 C        -1.7974505639       -6.1320556139       -6.0288630756
 C        -1.7241294729       -6.8068047726       -4.6332370646
 O        -2.6768450689       -7.1640350632       -3.9657306136
 C        -0.2186233808       -6.8697129977       -4.2249947599
 C         0.2824009486       -5.4207537082       -4.1643149110
 O        -0.6137831459       -4.6078644294       -4.0287557213
 C         1.7488609421       -5.0217205836       -4.4080250351
 C         1.6307979573       -3.5215503606       -4.7823612211
 C         1.1322322392       -3.4407337075       -6.2803185683
 O         0.6372788237       -4.4151215585       -6.8085705889
 C         1.2685814413       -2.1118358581       -7.0098273756
 C         0.4247214295       -0.9849442920       -6.2352864885
 O         0.9927265829       -0.0949456656       -5.5930947021
 C        -1.1728357355       -0.8974590707       -6.5834073585
 C        -1.7872961462       -0.1061580924       -5.4403667356
 C        -2.0964026467       -1.0117167587       -4.2168643548
 O        -2.0686753083       -2.2269058220       -4.2200986652
 C        -2.5034562860       -0.2271722633       -2.9600528970
 C        -3.7037987153       -1.0232089832       -2.1920209873
 O        -3.6564028433       -2.2188199093       -2.0647994980
 C        -4.8982865834       -0.1333896661       -1.6390546731
 C        -5.6030882808       -0.6137573601       -0.3900815099
 C        -4.6206238130       -0.6091018000        0.7298588698
 O        -3.5133646900       -0.1219321669        0.7141024514
 C        -5.0271630377       -1.2615086045        2.1658796039
 C        -4.9455123583       -2.8726730853        1.7374671960
 O        -5.8807310760       -3.4925673987        1.2851296470
 C        -3.6095902311       -3.5671809278        2.0634127778
 C        -3.6027273092       -5.0616464700        1.6209927896
 C        -3.8730480371       -5.2263173219        0.1184185624
 O        -2.9871648580       -4.7070543111       -0.6689529462
 C        -5.0323306594       -5.9545859638       -0.5154781527
 C        -5.7828872333       -4.9850161803       -1.6619233188
 O        -5.2148446330       -4.6200066527       -2.6625145615
 C        -7.1917396798       -4.5505162782       -1.2604428722
 C        -7.7081220391       -3.5540803030       -2.3199559979
 C        -8.5448951079       -2.3940419643       -1.5948614367
 O        -8.2235063498       -1.9501767208       -0.5236699417
 C        -9.5876588773       -1.6256997651       -2.4278612267
 C        -8.8326440471       -0.7999268325       -3.5422646401
 O        -7.6384344669       -0.7518168549       -3.5594555756
 C        -9.7296047119       -0.1053348946       -4.5766169469
 C       -10.5871303895       -2.5710581448       -3.1958580475
 C       -10.4151566817       -0.8014825890       -1.4475573588
 C        -4.3492254324       -7.0236180173       -1.3825795120
 C        -5.9424838704       -6.6823134931        0.6551288066
 C        -4.1148272031       -0.8251138307        3.3014484240
 C        -6.5090585738       -0.9668273892        2.6581077517
 C        -1.3242250738       -0.2322181560       -1.8195247270
 C        -2.8921243121        1.2641073842       -3.1252420654
 C         2.8042223214       -1.5916440054       -7.0194418920
 C         0.8329796295       -2.1927404603       -8.4635225605
 C         0.0337236364       -7.3574843383       -2.7902007683
 C         0.5206781248       -7.6790180547       -5.2969592931
 C        -6.5187381485       -4.1889292076       -5.9712422029
 C        -6.3564549202       -6.6564334615       -6.4918929393
 C        -3.3417137759       -4.6853398475      -12.4269537639
 C        -1.2979805819       -3.8536341734      -11.3033581160
 C        -1.5517596435        1.2638476400      -17.2756999019
 C        -3.8530011882        1.5286375170      -16.0909725456
 C        -6.5796304537        1.0876821878      -20.9756200171
 C        -5.6628738584       -0.4497784362      -22.7250627864
 C        -2.7255327945        2.8020973523      -27.5351076402
 C        -0.7988011259        1.9435762515      -26.1081346615
 C         1.2206287934        7.1684073312      -22.5273606211
 C         1.7630512610        4.8095969711      -21.8836456659
 H         0.2675754371        7.0857364457      -19.7171731732
 H        -1.4823168569        6.8934482314      -19.6847947420
 H        -0.7051339590        7.9171916147      -20.8124101344
 H         1.4623142974        6.1750196680      -25.1443809374
 H        -0.1179167805        6.9298230411      -25.1337238039
 H         0.5149322972        4.3029760065      -26.3277733292
 H        -0.2254772303        5.6961026144      -26.9385701740
 H        -4.6776668269        3.5414140745      -26.0115451642
 H        -4.3042126358        4.1135136845      -24.3984433336
 H        -4.8442678960        1.1373144470      -24.5944307184
 H        -6.2095156434        2.3563158614      -24.5805002557
 H        -3.4936114183       -1.5820499435      -21.1494434570
 H        -4.9720244601       -1.3767473481      -20.3179966791
 H        -2.1319523535       -0.7115954951      -19.3151831382
 H        -3.2128456642       -2.0710201853      -18.6887982266
 H        -3.9792950677       -0.5740774308      -14.4138679314
 H        -2.3595524249        0.0212415792      -13.9775426629
 H        -1.5215224727       -2.4653654504      -13.8171789131
 H        -3.1810454386       -2.9605976322      -14.1427651249
 H        -5.9277093477       -3.5293334267      -11.0124937103
 H        -5.3090319647       -1.9548709738      -10.1949162820
 H        -6.9171795807       -3.3231558326       -8.8498027033
 H        -5.3360276486       -2.9362069516       -7.9155798485
 H        -2.8884060255       -5.8175398035       -7.8848084078
 H        -3.4629702166       -7.2048372796       -6.8625279808
 H        -1.5342844025       -5.1064182052       -5.8957549214
 H        -1.0901189519       -6.6827706924       -6.6876976779
 H         2.0904051351       -5.6276145711       -5.2775684726
 H         2.3686457956       -4.9654135168       -3.4863393187
 H         2.5289007103       -2.9381396553       -4.7614400391
 H         0.9491947120       -3.1065532424       -4.0068514334
 H        -1.6804271855       -1.8742526901       -6.6598883969
 H        -1.2029092024       -0.4655501547       -7.5294401999
 H        -2.7224307367        0.3564880039       -5.6931488343
 H        -1.1644947841        0.7068981792       -5.1967320006
 H        -5.5816648293       -0.1249973096       -2.5409556509
 H        -4.6404493583        0.8837181256       -1.4801108343
 H        -5.7638013799       -1.6745535732       -0.5310021806
 H        -6.5902583567       -0.1046718760       -0.2347734382
 H        -3.6197577659       -3.5319571001        3.1384807481
 H        -2.7443733932       -3.1344475002        1.5661958243
 H        -4.1049422989       -5.7327925699        2.2562756700
 H        -2.5587153992       -5.3810763346        1.6387980393
 H        -7.0303631174       -3.9023565704       -0.3753258273
 H        -7.7921245337       -5.3171857282       -0.9480709240
 H        -8.1176604210       -4.1132102736       -3.2217003775
 H        -6.8247219405       -2.8743761632       -2.6956171008
 H        -9.9202147492        0.9406498102       -4.4720087396
 H       -10.7398028203       -0.5031889648       -4.5343919556
 H        -9.3974548222       -0.2336552308       -5.5645052613
 H       -10.0593073971       -2.8241857608       -4.1491282277
 H       -11.4803805761       -2.1267652032       -3.4388003871
 H       -10.8050689420       -3.5685644743       -2.7548822993
 H       -10.9598527434       -1.6663906739       -0.9328937964
 H       -11.1023641174       -0.0907168736       -1.9777757773
 H        -9.7719770219       -0.3321856910       -0.7071159785
 H        -5.0662447114       -7.8074486236       -1.5838378481
 H        -3.5995254818       -7.5261836001       -0.7927638767
 H        -3.7934422616       -6.6886142401       -2.2991867678
 H        -6.7208469565       -7.3068992911        0.2420811153
 H        -6.2991790782       -5.9358204399        1.3267469130
 H        -5.2798527000       -7.4075332643        1.1839125777
 H        -4.1476282543       -1.5775980632        4.1161743824
 H        -4.4109807951        0.1640530369        3.5720712302
 H        -3.0799252177       -0.7690729280        3.0702315310
 H        -6.7002056960        0.0117338504        3.1204643525
 H        -6.7564476783       -1.6865062386        3.4214406709
 H        -7.1693621339       -1.0645152288        1.8123071503
 H        -0.4029714780        0.2233724556       -2.1389996543
 H        -1.2590616125       -1.2186651907       -1.3906490002
 H        -1.7260316108        0.3550604174       -0.9732793239
 H        -1.9944897440        1.8312943652       -3.3949569514
 H        -3.1836691734        1.6257734006       -2.1838205013
 H        -3.6310734513        1.3544431039       -3.8967108540
 H         2.8413102322       -0.5951739008       -7.4012162318
 H         3.3831673446       -2.2473856102       -7.7125069994
 H         3.2760780883       -1.5564800065       -5.9866803117
 H        -0.2106439867       -2.4233220932       -8.4537722344
 H         1.3045098312       -2.9146616608       -9.0712611135
 H         0.9489962564       -1.1979388123       -8.8547345175
 H         1.1180412226       -7.4966005421       -2.5627622771
 H        -0.3397716318       -8.3530050711       -2.8089615209
 H        -0.5418176809       -6.7661888750       -2.0511961285
 H         1.4784920193       -8.1527375533       -5.0294865105
 H         0.7705539203       -7.1325271964       -6.1429454824
 H        -0.0890070206       -8.3871799900       -5.8402905038
 H        -7.5374019593       -4.0098228541       -6.3940854724
 H        -5.9511407898       -3.2271906816       -5.9833941370
 H        -6.6336474653       -4.5321433582       -5.0113960033
 H        -5.8137735687       -7.5364950017       -6.7957007267
 H        -7.2410412108       -6.8238344204       -7.1505604678
 H        -6.6659769693       -6.8268779141       -5.4487766357
 H        -3.5255903201       -5.5353273634      -11.7484963375
 H        -2.7255840766       -4.8543358990      -13.2826300840
 H        -4.3273360728       -4.3817140600      -12.9150957801
 H        -1.0552329837       -4.9027304089      -11.2231985791
 H        -0.9164283415       -3.3302073175      -10.3752099109
 H        -0.8311244039       -3.6123800233      -12.2242567546
 H        -1.5613673733        2.3902719537      -17.2044002670
 H        -1.3762183305        0.9970172715      -18.2647220697
 H        -0.7162504530        0.9572706670      -16.5989790667
 H        -4.6007509355        0.7928223872      -15.7011082282
 H        -4.4469770176        2.1963717280      -16.7640747199
 H        -3.4175064732        2.1628344160      -15.3647859749
 H        -7.4102650063        1.3465046957      -21.6042361519
 H        -6.4715685412        1.9169193758      -20.2438066993
 H        -6.8401498207        0.2023433396      -20.3226543650
 H        -6.4870041167       -0.3108819722      -23.3388686426
 H        -5.9044155568       -1.3199721354      -22.0811154454
 H        -4.8771528842       -0.7436910404      -23.4463677631
 H        -3.4950286695        3.5253210293      -27.6501023961
 H        -3.1969766479        1.8414747867      -27.5458487668
 H        -2.0416773777        2.8098508330      -28.2867077121
 H        -0.0987815423        1.9367241664      -26.9290295281
 H        -1.2443996705        0.8750459111      -26.1973647487
 H        -0.1632787277        1.9321668763      -25.1992001689
 H         1.5271463492        7.6248081580      -21.5928646017
 H         0.4739998844        7.7415828848      -23.0904230551
 H         2.0846601639        7.1267744063      -23.1964391813
 H         1.4641913532        3.8160384653      -21.5880384033
 H         2.3198819497        5.2863008138      -21.0324672745
 H         2.6147061195        4.6001029766      -22.6703012350
 Na       -2.8869982306       -4.2207336366       -2.9959680945
 Na       -2.1366353327        2.9938991225      -22.0660408818
