232

 C        -0.6527338779        7.0207200679      -20.3754661982
 C        -0.4813493855        5.8047492665      -21.2292616673
 O        -1.1024096681        4.7657019137      -20.9878328477
 C         0.5938715585        5.8038344410      -22.4446076866
 C         0.0941514614        4.9608753084      -23.7707469420
 O        -0.4488160026        3.8840760562      -23.6135747608
 C         0.3756115431        5.6069357575      -25.1206621485
 C        -0.3488798419        4.8932920499      -26.3138562369
 C        -1.6693366896        4.4318046977      -25.8970027235
 O        -2.5027724263        5.1645553979      -25.4361683413
 C        -2.0136431060        2.9124437167      -26.2400423139
 C        -3.1004052671        2.5850974907      -25.1420729022
 O        -2.6758242130        2.1121861098      -24.1112697304
 C        -4.5905528271        3.0361978898      -25.1305175635
 C        -5.4188718469        2.0832366216      -24.2102351820
 C        -5.0625388824        2.1929956588      -22.6703297523
 O        -4.6255702655        3.1663503711      -22.1529054735
 C        -5.4364839514        0.9730214381      -21.7764998759
 C        -4.0957831884        0.5403747839      -20.9134664369
 O        -3.1863572236        1.3066215157      -20.7909387589
 C        -4.0375979781       -0.8670536685      -20.3036472658
 C        -3.0781706296       -0.8485004471      -19.0916953557
 C        -3.8217044764       -0.0055770539      -18.0046457103
 O        -4.9577018304        0.3739246096      -18.2861842593
 C        -2.9826150597        0.4664818184      -16.7813322906
 C        -2.4814221639       -0.8081622056      -15.9834791229
 O        -2.0377117628       -1.8209619584      -16.4497558934
 C        -2.7209832535       -0.6959006013      -14.4323961369
 C        -2.6933784791       -2.1296575782      -13.8766746184
 C        -2.9087952926       -2.1810239084      -12.3478423197
 O        -2.9417635420       -1.1528461183      -11.7811806132
 C        -2.7918915391       -3.5493755857      -11.5342686735
 C        -3.5139192320       -3.4916595799      -10.0746984487
 O        -2.8549892032       -3.7740502394       -9.1149157527
 C        -5.0225293302       -3.2032430726      -10.1876081497
 C        -5.6137586662       -3.5561379509       -8.7913493421
 C        -5.4407080949       -4.9986995930       -8.2992908977
 O        -5.2294604253       -5.9422276117       -9.0056303597
 C        -5.7227999352       -5.1905666426       -6.7308567429
 C        -4.2434685051       -5.1892838631       -6.0339440012
 O        -3.9521761792       -4.4442022390       -5.1341479777
 C        -3.3219548554       -6.2791357861       -6.5824719407
 C        -1.7695102215       -6.2406630031       -6.1733621994
 C        -1.5878768457       -6.8259922177       -4.7472517574
 O        -2.5073469891       -7.0368595925       -4.0146447295
 C        -0.0618582291       -6.8033085591       -4.2342887145
 C         0.3554335154       -5.2503322959       -4.1821535227
 O        -0.4876210068       -4.4205940900       -3.9197625898
 C         1.8155676416       -4.8412683725       -4.3877897713
 C         2.0353996995       -3.4600244449       -5.0228812517
 C         1.3524342002       -3.2648623291       -6.3871751972
 O         0.6832124517       -4.1456282623       -6.8962300597
 C         1.4765190637       -1.8873775498       -7.0819215360
 C         0.6202453555       -0.8663403647       -6.1495072899
 O         1.1189752509       -0.1188457247       -5.3775808950
 C        -0.9625632282       -0.9393493079       -6.3912628286
 C        -1.7518501759       -0.1490505579       -5.3712338521
 C        -2.0612943708       -1.0260726042       -4.1674196237
 O        -2.2230874682       -2.2250401066       -4.2575943581
 C        -2.4798714372       -0.2604605268       -2.8761981647
 C        -3.7430303866       -0.9846477425       -2.0218641914
 O        -3.8274309968       -2.1955901347       -1.8989708466
 C        -5.0796815924       -0.1016497227       -1.6340399933
 C        -5.6288994462       -0.6505196672       -0.3144641106
 C        -4.6078089761       -0.7431926418        0.8620407298
 O        -3.5033041237       -0.2236335145        0.7581372492
 C        -5.0474416172       -1.4319428429        2.1184002548
 C        -4.9253641321       -2.9753610121        1.8578112754
 O        -5.7684854344       -3.4630855387        1.1464293553
 C        -3.6005221935       -3.7075650234        2.1128207145
 C        -3.6987413196       -5.0908794569        1.5066283082
 C        -3.8033017678       -5.1638895194        0.0041212130
 O        -2.9786497213       -4.6618624418       -0.6426380198
 C        -5.0478252733       -6.0969883683       -0.6121436118
 C        -5.7423152406       -5.1339887884       -1.6054212547
 O        -5.2445356781       -4.7783874949       -2.6892187758
 C        -7.1764382071       -4.5234831575       -1.1871197113
 C        -7.7512818261       -3.4602838221       -2.1127319023
 C        -8.6041715130       -2.3172356359       -1.4183317535
 O        -8.5030089878       -1.9980097404       -0.2468793913
 C        -9.6450276146       -1.6629221183       -2.4084963706
 C        -9.0012910592       -0.8649444725       -3.6232616482
 O        -7.7948612549       -1.0472084349       -3.7527491684
 C        -9.7512067647        0.1048780804       -4.5151719492
 C       -10.5743969799       -2.7244303811       -2.9193690869
 C       -10.5141194489       -0.5670892436       -1.7319248473
 C        -4.4226855030       -7.3204755449       -1.3330343926
 C        -6.0917495226       -6.5950340927        0.3541239018
 C        -4.1644382655       -1.0234400652        3.3131691317
 C        -6.5298237900       -1.2083899649        2.3752068802
 C        -1.2279043609       -0.4977139653       -1.9329770509
 C        -2.8009651096        1.3392312162       -3.1199042975
 C         2.9491833560       -1.5143999866       -7.1105152290
 C         0.8274140005       -1.9699978554       -8.5918993094
 C        -0.0729764663       -7.2448733294       -2.6980207125
 C         0.7315474446       -7.9148464229       -4.8764587100
 C        -6.4833901840       -4.0872792554       -6.0692327445
 C        -6.3567149536       -6.6180788311       -6.5010122448
 C        -3.4121123507       -4.7508685063      -12.4014219849
 C        -1.2713203321       -3.8529179580      -11.1270052183
 C        -1.8067563056        1.2853686434      -17.4099955972
 C        -3.7066601012        1.5037680206      -15.8776429382
 C        -6.5334222623        1.5516080657      -20.8390839374
 C        -5.9141610426       -0.2668390890      -22.6622710640
 C        -2.4658582583        3.0496818601      -27.6568921355
 C        -0.8278365883        1.8967796586      -26.1808137478
 C         1.0826945856        7.2614304673      -22.6676371090
 C         1.7630472438        4.9016108210      -21.9132624771
 H         0.3558755823        7.5174155607      -20.3134864592
 H        -1.0719934221        6.7513575040      -19.3985657850
 H        -1.2771454348        7.8209543543      -20.7463509484
 H         1.4610635153        5.6306917785      -25.1563489219
 H         0.1416968955        6.6676284342      -25.0714475820
 H         0.3150652753        4.0704900602      -26.6833707345
 H        -0.5669022409        5.4941774310      -27.2533373162
 H        -4.9632021867        2.9930551189      -26.0846274885
 H        -4.6516613191        4.1676846697      -24.8903926928
 H        -5.2949450422        1.0748187985      -24.4989405470
 H        -6.4492548396        2.3832476136      -24.3717913468
 H        -3.7586374582       -1.6292251290      -21.1377731390
 H        -5.0667400656       -1.1396916669      -19.9550159738
 H        -2.1221627138       -0.4176427027      -19.3430387299
 H        -2.9522986512       -1.8108577025      -18.6952997143
 H        -3.6096802995       -0.1392923053      -14.2641035559
 H        -1.9190151619       -0.0005393087      -14.0753385068
 H        -1.7779287196       -2.6481988096      -14.2044156008
 H        -3.5410630295       -2.8133746029      -14.1930424327
 H        -5.2873003980       -3.7012860954      -11.0607658295
 H        -5.1008678598       -2.1780201202      -10.3668138624
 H        -6.7265482043       -3.4666379560       -8.7895005460
 H        -5.1451930869       -3.0012962129       -8.0596998493
 H        -3.3519563821       -6.2385000965       -7.6907407240
 H        -3.7551708767       -7.1946873705       -6.2953323955
 H        -1.6247446555       -5.1708804512       -5.9463297704
 H        -1.2193835267       -6.6117328430       -7.0021277222
 H         2.3232259377       -5.5354885895       -5.0117687922
 H         2.2200977549       -4.7901130786       -3.4116370176
 H         3.1012191677       -3.1778831344       -5.0917701747
 H         1.6000075676       -2.6328810241       -4.4561220638
 H        -1.2279119167       -1.9892896604       -6.4265157263
 H        -1.2095605273       -0.5483060643       -7.4371298313
 H        -2.6670878759        0.3759574913       -5.8246801865
 H        -1.0829181845        0.7705767573       -5.0601702394
 H        -5.6677866411       -0.3906421401       -2.4753618564
 H        -4.9808686343        1.0312849701       -1.6234574250
 H        -6.0860513531       -1.6087287654       -0.5337266961
 H        -6.3868905941        0.0123462729        0.0315255148
 H        -3.3707137124       -3.8397835790        3.1930681794
 H        -2.8680893414       -3.1649453668        1.4943762890
 H        -4.6329676492       -5.5654557096        1.9389011221
 H        -2.9556910729       -5.8245489172        1.8875516761
 H        -7.0202543536       -4.0066270161       -0.2430919941
 H        -7.8644207960       -5.3975203190       -0.9198682876
 H        -8.2042516398       -3.9118888443       -2.9531297018
 H        -6.9130202524       -2.9706829389       -2.5048686094
 H       -10.1465515107        0.9018596394       -3.8611424841
 H       -10.6910339547       -0.2451972468       -5.0421702469
 H        -9.0744783764        0.6368698571       -5.1964295118
 H       -10.1936512535       -3.5552716267       -3.4872767468
 H       -11.4581321763       -2.3068351001       -3.5137950066
 H       -10.9771133780       -3.1295927255       -2.0146624125
 H       -10.7861444271       -0.8595639106       -0.7403935504
 H       -11.3645085806       -0.3960094964       -2.3945197986
 H        -9.8888821763        0.3394126337       -1.7353220172
 H        -5.1758061746       -7.8087614106       -2.0001717977
 H        -4.1019529796       -8.1908729115       -0.7100099594
 H        -3.5790646216       -6.9630153956       -1.9116956315
 H        -6.7933723239       -7.0702878514       -0.2920950685
 H        -6.5163499060       -5.7370345223        0.9646966516
 H        -5.7773100459       -7.3345764736        1.0019427588
 H        -4.4084703799       -1.6011906343        4.1844248846
 H        -4.1468359386        0.0897559361        3.4887965326
 H        -3.0847993290       -1.3472684883        3.1475760197
 H        -6.7104598558       -0.1532929487        2.3033541670
 H        -6.7407657114       -1.5366709962        3.3813695273
 H        -7.2316391968       -1.6219235494        1.6367817476
 H        -0.3086106980       -0.0975623965       -2.4859457273
 H        -1.1098142581       -1.6004626391       -1.7394274212
 H        -1.3548071010       -0.0338123428       -0.9560425063
 H        -1.9831494053        1.8082127235       -3.6353361834
 H        -3.0281682616        1.7089670546       -2.0800171584
 H        -3.7740589394        1.3807304087       -3.6483720822
 H         3.1363683042       -0.5806593021       -7.6976604620
 H         3.5512814666       -2.3268221949       -7.4652897150
 H         3.1363425349       -1.2882797915       -6.0994037422
 H        -0.2277775909       -2.2660219376       -8.5723171919
 H         1.3607035167       -2.7965096197       -9.0685033674
 H         0.9771577194       -1.0521126647       -9.1453581805
 H         0.9940510104       -7.3206401195       -2.3982992337
 H        -0.4915341563       -8.2839740889       -2.4835243933
 H        -0.5431555229       -6.4172624338       -2.1640498079
 H         0.4622650519       -8.9014079973       -4.4669928823
 H         1.8617008258       -7.8716519266       -4.9144234911
 H         0.5290911754       -8.0001311602       -5.9233090659
 H        -7.3420119364       -3.7782291376       -6.5774453056
 H        -5.8178835089       -3.2800705293       -6.0536719197
 H        -6.7640985466       -4.3673233128       -5.0217270256
 H        -6.4106145136       -7.2235349887       -7.3869871058
 H        -7.3490027641       -6.6151325756       -6.1908680260
 H        -5.7886088658       -7.2292592136       -5.8083501162
 H        -3.3630857916       -5.6521065212      -11.8207475534
 H        -2.9912512696       -4.8245511829      -13.4635400430
 H        -4.4212914137       -4.5524950814      -12.5622936889
 H        -1.2397453791       -4.9286620381      -10.8910169624
 H        -1.1527859375       -3.3160046415      -10.2076226577
 H        -0.4522934046       -3.6912798262      -11.8888219278
 H        -1.8024297674        2.2838880779      -17.1112237729
 H        -1.8093819925        1.0990198494      -18.5348348875
 H        -0.8699124269        0.9230839039      -17.0536237524
 H        -4.6983061860        1.1187158237      -15.6085974076
 H        -4.0122992680        2.4189551335      -16.4224046829
 H        -3.0127855366        1.8356007268      -15.0197925612
 H        -7.4923377259        1.8769784767      -21.3476305641
 H        -6.0393464784        2.3680828151      -20.3071724071
 H        -6.7986025911        0.9392613456      -19.9434142209
 H        -6.7412952730        0.0431159544      -23.4042583600
 H        -6.3648499939       -1.0684517894      -22.0938030290
 H        -5.1398754283       -0.6921003189      -23.2984413327
 H        -3.1566238692        3.9215825155      -27.6362258978
 H        -2.9852315975        2.1330245811      -27.9597893267
 H        -1.6299841570        3.3652062297      -28.3602425056
 H         0.1521966312        2.1664482337      -26.5588906797
 H        -0.9587526997        0.9789738357      -26.6472418490
 H        -0.6631648729        1.5869200853      -25.1209530342
 H         1.8689813093        7.4435135826      -21.9376376349
 H         0.2940683381        7.9944417835      -22.6948500858
 H         1.5723745733        7.3755126935      -23.6056577099
 H         1.4477020045        3.8329716627      -21.9887381321
 H         2.1873286970        5.1653244093      -20.9802456879
 H         2.5713619009        4.8682529379      -22.5223627270
 Na       -2.8688317892       -4.2806399581       -3.1521657467
 Na       -2.1889016536        3.0601427744      -22.0089884775
