232

 C       -20.7271065005       -7.6795179504       -4.2095733912
 C       -20.6139057207       -6.3195403252       -3.6431275482
 O       -19.9118081594       -6.1580839931       -2.6968884523
 C       -21.3376195043       -5.0816227723       -4.4489265988
 C       -20.1354602107       -4.2825819729       -4.9567653707
 O       -19.6571693991       -3.4707816163       -4.1693656142
 C       -19.4686851264       -4.7608959070       -6.1614437461
 C       -18.1702195353       -3.8974160118       -6.4034174983
 C       -17.5275993511       -3.6918750791       -5.0370179511
 O       -17.2739989770       -4.7001789217       -4.3419629287
 C       -16.8380786932       -2.3975408448       -4.5472703948
 C       -16.4492639139       -2.5129773786       -2.9894913107
 O       -17.2929091288       -2.3136103862       -2.1598118106
 C       -15.0277674823       -2.9765465697       -2.5579812823
 C       -14.8242614359       -3.2635310982       -1.0602799176
 C       -15.4311030144       -4.6675035143       -0.6255026234
 O       -16.5413717056       -4.9994790320       -1.0572068354
 C       -14.5554108356       -5.6074708841        0.2220845300
 C       -13.3814416103       -6.0089148457       -0.7748973574
 O       -12.5541699570       -5.1680996623       -1.1438429448
 C       -13.0517032744       -7.4904070228       -1.0372296438
 C       -11.5652312229       -7.5969759020       -1.5452316445
 C       -11.4478771337       -8.6266387497       -2.7653669844
 O       -12.3525369815       -8.5725038849       -3.5979140701
 C       -10.2950718947       -9.6502199299       -2.7397070729
 C        -8.9912249127       -8.8691079906       -2.6040862194
 O        -8.2411910682       -9.0817566245       -1.6787489410
 C        -8.7203374488       -7.9251032433       -3.8693547580
 C        -7.4227420824       -7.0969018244       -3.8600414175
 C        -7.5346598027       -5.5333031163       -3.9538935741
 O        -8.5656661882       -4.9417793199       -3.7707053651
 C        -6.1710314991       -4.7799981537       -4.2935166484
 C        -5.5511223655       -5.4103386169       -5.5257667654
 O        -5.1412964319       -6.5716477078       -5.6194935101
 C        -5.3751843228       -4.5941830675       -6.8845116969
 C        -4.0838470787       -5.0988037031       -7.5512464553
 C        -3.4905154963       -4.1400787510       -8.6154459388
 O        -4.0809347704       -3.6483690903       -9.4959803811
 C        -1.9743250524       -3.9299322525       -8.5683160202
 C        -1.4865888058       -5.0627450584       -9.5325838276
 O        -0.6232010491       -5.8605838994       -9.1398125761
 C        -2.0842863085       -5.3235699106      -11.0008927342
 C        -0.9350043116       -5.8950658725      -11.8210859405
 C         0.1758693453       -4.8390353058      -11.9572685946
 O        -0.0575536203       -3.7196316513      -11.5233958270
 C         1.5597302145       -5.2296304096      -12.3846631379
 C         2.3178592016       -4.0882383964      -13.4128615754
 O         2.9669811431       -4.5261731679      -14.3442363443
 C         2.2978361040       -2.6129060348      -13.0176840024
 C         3.7127889764       -1.9965916508      -13.0092854560
 C         3.4722091748       -0.3524223746      -12.7203965087
 O         2.3710234998       -0.0123708943      -12.3912899463
 C         4.7135106604        0.5709364286      -12.6085143136
 C         4.8634397228        1.5420938677      -13.9151346281
 O         5.7792177808        1.3538675225      -14.6881795373
 C         3.7953498738        2.6002862893      -14.3857710382
 C         3.9016366751        3.9911444086      -13.6194037387
 C         5.2721692136        4.5184254602      -13.5018548258
 O         6.2224260916        3.9036527765      -13.9924221814
 C         5.4461671648        5.8658009526      -12.6905688961
 C         6.0137338371        6.9888313206      -13.5982845394
 O         5.1859846081        7.7282283146      -14.1128142679
 C         7.5628377932        6.9165472192      -14.0202639353
 C         7.7750280146        7.3957240419      -15.5032457126
 C         7.2028002338        6.5431524840      -16.5742486969
 O         6.9151695120        5.4100370338      -16.3172592618
 C         7.0249650920        7.2288488978      -18.0131847300
 C         8.3871974697        7.0581662238      -18.7521084723
 O         9.3959547707        6.7897712798      -18.1202779839
 C         8.4324830230        7.3190177228      -20.2505241035
 C         9.2068583504        6.2979335642      -21.1080646933
 C         9.0112746058        4.8153506171      -20.7485850170
 O         8.5888315693        4.5321520258      -19.6403980590
 C         9.2972296821        3.6689498372      -21.8877692985
 C         8.8500804907        2.4238367272      -21.2797453245
 O         7.7333009189        2.0215599084      -21.5809719679
 C         9.6190498705        1.7038329721      -20.1693579030
 C         8.8916802242        0.5037119129      -19.5240666268
 C         7.7708875741        0.9849763025      -18.5038735610
 O         7.9142241931        1.9615505882      -17.8088050709
 C         6.4609874484        0.1644892530      -18.4194122927
 C         5.3061877281        1.1801489818      -18.5493197702
 O         5.0324988918        2.0069803041      -17.6751153757
 C         4.6404085828        1.2943269376      -19.9629885690
 C         6.0988478040       -1.0520491977      -19.2485462923
 C         6.4731729924       -0.3721570289      -16.9779800271
 C         8.3127922946        4.0889030285      -23.1215179690
 C        10.7517298614        3.6892676651      -22.3564703480
 C         5.8277278352        6.5648381184      -18.8154332319
 C         6.9037000964        8.8477074725      -17.8998816082
 C         4.1061992848        6.2300674966      -12.1830363409
 C         6.5211148502        5.6982475381      -11.6531843837
 C         4.5017294962        1.3634762193      -11.3462808461
 C         6.0858885351       -0.1835782520      -12.4354305509
 C         2.4868707424       -5.2476671880      -11.1085442596
 C         1.7020095331       -6.6138385718      -13.1945595626
 C        -1.6701292943       -2.4337129540       -9.0905345889
 C        -1.3839112799       -4.2019540930       -7.1041210786
 C        -6.5469848902       -3.2609207373       -4.5451440110
 C        -5.1830289611       -4.9109324163       -3.0956796363
 C       -10.6248051678      -10.5463076117       -1.4599671474
 C       -10.3906753473      -10.5899534833       -4.0162262603
 C       -13.9247880234       -5.0071006974        1.4699818799
 C       -15.4015248167       -6.9149235358        0.5673982730
 C       -15.5946503048       -2.3544730160       -5.5278010722
 C       -17.5543537333       -1.0272077036       -4.7750671118
 C       -22.2679713552       -5.6071505103       -5.5634557231
 C       -22.2270986457       -4.1438992385       -3.5237688308
 H       -21.5947374488       -8.1079137938       -3.7952399288
 H       -19.8333554325       -8.2040559685       -3.8249021944
 H       -20.8579716138       -7.6417861249       -5.2862867294
 H       -20.2269225842       -4.7132585556       -6.9689183100
 H       -19.2613728582       -5.8777446349       -6.0025447355
 H       -18.5454194790       -2.9885647008       -6.8926523781
 H       -17.5361858807       -4.3755071333       -7.1669967473
 H       -14.2380493911       -2.2914796378       -2.7599166598
 H       -14.8057547250       -3.8976201828       -3.0672481771
 H       -15.2832312613       -2.4190983040       -0.4809514065
 H       -13.8052688893       -3.2153988301       -0.8542985593
 H       -13.6470254439       -7.9226358697       -1.8359841431
 H       -13.1034285124       -8.0877594781       -0.1542665857
 H       -10.8847954122       -7.8149138870       -0.6808464054
 H       -11.1676016765       -6.6138126383       -1.8251784692
 H        -9.6159333715       -7.2601391471       -4.1099281595
 H        -8.6740693794       -8.6371015929       -4.7331230170
 H        -6.7318325735       -7.5849697306       -4.6435636857
 H        -6.9762018332       -7.2685340539       -2.8598014644
 H        -5.1950704737       -3.5625965117       -6.7650943037
 H        -6.2482320968       -4.7768448336       -7.4110197706
 H        -4.2614173433       -6.0959622112       -7.9789414064
 H        -3.3799403985       -5.1621580883       -6.7437879001
 H        -2.5147871585       -4.3261887276      -11.5137538274
 H        -2.9568633663       -5.9741162411      -11.0292508004
 H        -1.2623799967       -6.3818935794      -12.7552208434
 H        -0.4664545872       -6.7009096182      -11.1871649639
 H         1.8860310135       -2.5043735147      -12.0305809315
 H         1.5538800788       -2.1272693157      -13.6423855304
 H         4.3513792250       -2.1586026075      -13.8894115508
 H         4.2305094094       -2.5003535625      -12.1158575687
 H         2.8384027266        2.1363752981      -14.1884756375
 H         3.8844424918        2.8598491404      -15.4691582337
 H         3.3272746551        4.0447495991      -12.6931556121
 H         3.3248580246        4.6439829381      -14.3616394506
 H         7.9469144436        5.9209518455      -13.8260571749
 H         8.0900994830        7.6710129648      -13.4025682410
 H         8.8033275260        7.5634716524      -15.6230602702
 H         7.4688531372        8.5183595507      -15.6364012313
 H         8.8606129950        8.3218185920      -20.4302971146
 H         7.4510372781        7.4903293210      -20.6635209253
 H        10.2650331221        6.3497896815      -20.8778110066
 H         9.1775398164        6.4661448966      -22.2111105029
 H         9.9209642591        2.3798709963      -19.3275516221
 H        10.3496628688        1.1585410338      -20.7866583943
 H         9.5000653300       -0.2336264527      -19.0231144534
 H         8.2769826765       -0.0216385984      -20.2914405999
 H         4.2063675606        0.4670808295      -20.3205936321
 H         5.5618419699        1.4653561636      -20.5311073810
 H         4.1328127106        2.2804544227      -20.1539802870
 H         5.1426518607       -1.4418923082      -18.9320339596
 H         6.9029424313       -1.8459386777      -19.1426051831
 H         6.0908633483       -0.6495402178      -20.2353270884
 H         7.0558425994       -1.2977357656      -16.9509515707
 H         5.4453385555       -0.6533259753      -16.7570505324
 H         6.8817559765        0.3943046800      -16.3041595038
 H         8.0834902410        3.2297032660      -23.6555812516
 H         8.7649463119        4.8021300809      -23.7793248877
 H         7.4217853029        4.5584072159      -22.7512336610
 H        10.9425530631        3.2777422296      -23.3665413321
 H        11.3786928077        3.0564804440      -21.6901405668
 H        11.2486349235        4.6611223963      -22.4023062521
 H         4.8850662106        6.5163413988      -18.2923857352
 H         6.0499190697        5.5182346282      -19.0282174059
 H         5.5023501036        6.8914478527      -19.8058998272
 H         7.8009859162        9.1340263315      -17.4245657394
 H         6.0198384733        9.2115098827      -17.2801117204
 H         6.9063199803        9.3342417071      -18.8378309444
 H         4.2035836079        7.1248703655      -11.4967460864
 H         3.7821011057        5.4740504301      -11.5370775841
 H         3.5994485195        6.5546098200      -13.0714019757
 H         6.3062097164        4.8969234824      -10.8740124757
 H         6.4195278870        6.6023255921      -11.0459016732
 H         7.5265201249        5.5121459607      -12.0955798161
 H         5.0411788909        2.2742201376      -11.3405568204
 H         4.7581702555        0.8178809182      -10.4536405666
 H         3.3981710041        1.6185736510      -11.3619529609
 H         6.2140778657       -0.9396219985      -11.7406028831
 H         6.8693367032        0.5195367535      -11.9850024144
 H         6.4383449942       -0.6735369963      -13.3243599184
 H         3.3300258064       -5.8853524321      -11.2891349614
 H         1.9324453266       -5.7961196818      -10.2512294511
 H         2.7751432744       -4.2349133050      -10.7416483024
 H         1.3130929342       -7.3988019935      -12.5859667375
 H         2.7744497632       -6.8876533207      -13.2032423259
 H         1.2162184105       -6.7019593162      -14.2083076765
 H        -1.7264481881       -1.6346498721       -8.3454837298
 H        -2.2986474406       -2.3283286240       -9.9911720080
 H        -0.6255050506       -2.3826470295       -9.5396813808
 H        -1.4831140089       -5.2790613567       -6.8153629071
 H        -1.7372522146       -3.5101963266       -6.3854949001
 H        -0.2998963531       -3.9913706722       -7.1396640596
 H        -7.3823763699       -3.2421988329       -5.1687622529
 H        -5.7631428590       -2.6373993652       -4.8672918915
 H        -6.8700178029       -2.8452622572       -3.5658103095
 H        -5.2897235778       -4.4011574811       -2.1231061154
 H        -4.1247967456       -4.7928372951       -3.4316533535
 H        -5.1943635569       -5.9567205878       -2.9109041633
 H       -11.6134476009      -10.5565525265       -1.0480505615
 H        -9.9523809173      -10.1133332464       -0.6846960006
 H       -10.3005577651      -11.5529308814       -1.6051536970
 H       -11.2619106859      -11.2239722853       -3.8817472197
 H        -9.4940748603      -11.1745581445       -3.9560657391
 H       -10.4459607343       -9.8813471955       -4.9135454910
 H       -14.2849857266       -4.0493279904        1.8938420665
 H       -12.9263997350       -4.8763436162        1.3623560640
 H       -14.0439648266       -5.6726141319        2.3204111154
 H       -16.2321320823       -6.9287060708       -0.0927698219
 H       -15.7013996927       -6.8211733256        1.5884701799
 H       -14.9229602045       -7.8549944885        0.4872929619
 H       -14.7405715741       -3.0383342823       -5.2588902857
 H       -15.1500952389       -1.3826529188       -5.5132256362
 H       -15.9835546808       -2.4467133901       -6.5517812925
 H       -18.5689930850       -0.9329057343       -4.2497910663
 H       -17.5907186866       -0.8590406660       -5.7708778066
 H       -16.9265713320       -0.2756220268       -4.3327526403
 H       -21.7481237601       -6.3749763699       -6.2636034578
 H       -22.6592556518       -4.8588836827       -6.2506834407
 H       -23.2357202822       -6.1297771432       -5.2610534119
 H       -22.5217833495       -3.2758329603       -4.1918929090
 H       -21.6565590113       -3.7322439483       -2.6768806406
 H       -23.1444153041       -4.5531421293       -3.1405921115
 Na      -18.3624452169       -4.3497138826       -2.2329128628
 Na        6.7299104815        3.0872245831      -16.3990874211
