232

 C        -0.6879467874        7.1271980532      -20.4466155145
 C        -0.4799242976        5.8831471097      -21.3341017793
 O        -1.1622953849        4.9012181521      -21.0537194793
 C         0.6458538509        5.7831787729      -22.4174117898
 C         0.1543063509        4.9959178215      -23.6770521076
 O        -0.4956505564        3.9912567283      -23.4897700629
 C         0.2887677498        5.5622775748      -25.0969220274
 C        -0.2762767827        4.6651720096      -26.2897653889
 C        -1.7792047886        4.3253803214      -25.9410878797
 O        -2.4086044138        5.2612486592      -25.5297041567
 C        -2.2797493011        2.8362953815      -26.3025531481
 C        -3.3766424646        2.4072736522      -25.1822222971
 O        -2.8838619156        1.8046454419      -24.2585371393
 C        -4.9391415891        2.6998904759      -25.3406756500
 C        -5.8586966963        2.1597468927      -24.2595162980
 C        -5.1878553979        2.2849361572      -22.8231506709
 O        -4.5661295272        3.2867883113      -22.5656927832
 C        -5.4655516685        1.2085884805      -21.8097629683
 C        -4.0839982414        0.6276524614      -21.1081639936
 O        -3.1054978869        1.2913403629      -21.0709694603
 C        -4.1967769347       -0.7911463211      -20.3569515125
 C        -3.4715589610       -0.8447858143      -19.0042316509
 C        -4.0123933694        0.0917978432      -17.9107357424
 O        -5.1812015226        0.4881203409      -17.9279729996
 C        -3.0406806111        0.5220896481      -16.7730974363
 C        -2.6143581751       -0.8871922067      -16.0189188284
 O        -2.2629755166       -1.8704417724      -16.6222683625
 C        -2.5470069872       -0.8806552140      -14.5164229477
 C        -2.8002871551       -2.2387840602      -13.9153042242
 C        -2.7525476379       -2.3438513014      -12.3010398271
 O        -2.7964871892       -1.3525529127      -11.6411865043
 C        -2.5205757394       -3.7123547003      -11.6819038394
 C        -3.2266638366       -3.7478708742      -10.0922767674
 O        -2.7198603804       -3.6187005179       -9.0423451271
 C        -4.7316504153       -3.3929111198      -10.1466565114
 C        -5.3514750971       -3.4388509914       -8.7599335152
 C        -5.3709376653       -4.8516249592       -8.2203783019
 O        -5.0120152449       -5.7974162360       -8.9003399641
 C        -5.7205436215       -5.2050903230       -6.5789561265
 C        -4.2467478302       -5.2809286349       -6.0121719003
 O        -3.7062611286       -4.3675274151       -5.4328140751
 C        -3.3635877117       -6.5437294842       -6.4325627096
 C        -1.8452657929       -6.3708659054       -6.1561741869
 C        -1.5984984818       -6.5748993186       -4.6693366097
 O        -2.4801618338       -6.8906825197       -3.8950097777
 C        -0.1366408022       -6.4940878137       -3.9833859308
 C         0.5907571107       -4.8885990904       -4.0561327246
 O        -0.0652446489       -3.9536588769       -3.6128743057
 C         1.9934354520       -4.7993869092       -4.6432057975
 C         2.3502385666       -3.4074945743       -5.1604824458
 C         1.5431348745       -3.1238030613       -6.4231388784
 O         0.7906186402       -3.9803666942       -6.8461208994
 C         1.6521517480       -1.6886067730       -7.1785748974
 C         0.7702921968       -0.9230981938       -6.1341155770
 O         1.2485732149       -0.3645589837       -5.2006569389
 C        -0.7691731529       -1.0075236405       -6.2572810881
 C        -1.5153034483       -0.1340616551       -5.1690483582
 C        -2.2427930481       -0.9689996060       -4.1282869566
 O        -2.4864397872       -2.1270475112       -4.3877176922
 C        -2.5188345821       -0.3953285555       -2.7130954164
 C        -3.7626865680       -1.0129803311       -2.1778793953
 O        -3.7684191060       -2.2200873755       -1.9849107396
 C        -4.9365609890       -0.1062966246       -1.5901521949
 C        -5.5745083410       -0.7822713596       -0.3166507501
 C        -4.5616752996       -0.8573472204        0.8875308726
 O        -3.4590125670       -0.3640765739        0.7421294513
 C        -5.0357332158       -1.6391190837        2.2249099995
 C        -4.7461052973       -3.0579176484        1.7208285729
 O        -5.7397470778       -3.7023541811        1.3066516912
 C        -3.5234714325       -3.7699927124        1.9760790633
 C        -3.5861625643       -5.3053262918        1.5062148714
 C        -3.8269397283       -5.2883283178       -0.0064521461
 O        -3.0206715433       -4.8550719062       -0.7836493942
 C        -5.2615343133       -6.1272765943       -0.6386239635
 C        -5.8936015278       -5.0905306294       -1.5870314368
 O        -5.2856974142       -4.7573844436       -2.6010714539
 C        -7.3783065052       -4.5423871501       -1.3418713510
 C        -7.5529732523       -3.2491379901       -2.1928097201
 C        -8.6133275255       -2.3875902566       -1.5086322575
 O        -8.8212684395       -2.3746197339       -0.3178619885
 C        -9.7629803293       -1.5711171029       -2.4085026189
 C        -9.1015849471       -0.9945568732       -3.6989189056
 O        -8.0776486625       -1.5109841433       -4.1403612884
 C        -9.8086394467        0.0891897953       -4.5094650122
 C       -10.7734365725       -2.6359322835       -2.9194270000
 C       -10.3919968491       -0.5823116568       -1.3729031642
 C        -4.7357825902       -7.2179606195       -1.5986864339
 C        -6.2597213159       -6.7796194234        0.3208319503
 C        -4.0619709206       -1.1320126687        3.3912421042
 C        -6.5797364135       -1.3586371175        2.4148698827
 C        -1.3124050146       -0.8115877448       -1.7348732345
 C        -2.5691816872        1.1682584192       -2.8010977148
 C         3.0196047108       -1.0322392160       -7.0874067731
 C         1.1344298126       -1.8330862906       -8.6414667595
 C        -0.2265724864       -6.7842979590       -2.5072170618
 C         0.7558096750       -7.6782431549       -4.6309406677
 C        -6.5004313252       -4.0685204242       -5.9346332875
 C        -6.5106878478       -6.5017464617       -6.6363502156
 C        -3.1634899023       -4.8376181972      -12.4439542520
 C        -0.9424353196       -3.8817408961      -11.6286743089
 C        -1.7060387168        1.0953411660      -17.0736440973
 C        -3.7440544968        1.5822421716      -15.9896738103
 C        -6.0154015152        2.0030949290      -20.5457955529
 C        -6.4191278137        0.1449919134      -22.3352941323
 C        -2.9858182065        2.9003770071      -27.6367008129
 C        -1.0766674975        1.9071172042      -26.3487803218
 C         1.0869986095        7.1713324690      -22.7648862052
 C         1.8660573719        5.0603952027      -21.7793061832
 H         0.0652769969        7.9284339321      -20.4857892194
 H        -0.9844723767        6.8512918371      -19.4692600140
 H        -1.5159840881        7.6902650217      -20.8577686844
 H         1.2817455697        5.8815031823      -25.3926603342
 H        -0.2364270163        6.5964016268      -25.1339834283
 H         0.4332871603        3.9237027706      -26.4584223871
 H        -0.2830070378        5.2621030436      -27.1799975654
 H        -5.1657644368        2.1907264675      -26.2696084313
 H        -5.0440436101        3.8459492933      -25.7284246065
 H        -5.8435971684        1.0981906282      -24.4899678321
 H        -6.8806092110        2.5252276783      -24.2869767156
 H        -3.7731807017       -1.5268730890      -21.0171484259
 H        -5.2541940481       -0.9785524295      -20.1697419138
 H        -2.3830826266       -0.6620140977      -19.1827288962
 H        -3.6021973375       -1.8861431887      -18.6450474011
 H        -3.0906665485       -0.0654246549      -14.0817955529
 H        -1.5013404080       -0.4018156584      -14.4348012872
 H        -2.2149706675       -3.0223027979      -14.2578371003
 H        -3.8335910514       -2.5747028498      -14.0660602975
 H        -5.1382540646       -4.1352397156      -10.9655265044
 H        -4.7561007462       -2.3417237080      -10.6440057221
 H        -6.4818603912       -3.0861047086       -8.8042572024
 H        -4.7875720115       -2.9182583681       -8.0169200710
 H        -3.4578971024       -6.6959404772       -7.5403076014
 H        -3.7511907768       -7.4710820988       -5.9522055625
 H        -1.6441700288       -5.2876848139       -6.3756482720
 H        -1.2842228321       -7.0311996106       -6.7636871711
 H         2.0788349853       -5.4816346742       -5.4970219122
 H         2.7171793633       -5.1226338303       -3.8367648553
 H         3.4251845981       -3.1776273007       -5.3305198233
 H         2.0576934862       -2.5962347490       -4.5169556441
 H        -1.1411533047       -2.0031117565       -6.2008277069
 H        -1.0283844140       -0.7006720166       -7.2603426389
 H        -2.1709980629        0.5690873325       -5.6365573616
 H        -0.7457984175        0.4441938642       -4.6876009672
 H        -5.7067743458        0.0293052260       -2.3583741399
 H        -4.4912202162        0.8368382711       -1.2834839259
 H        -6.2055415076       -1.6613359447       -0.5717126195
 H        -6.2515844547       -0.0201730406        0.0079972571
 H        -3.3854962744       -3.7902093022        3.0792090252
 H        -2.7348831535       -3.3514918348        1.4351301880
 H        -4.3085068656       -5.9034362614        2.0396677688
 H        -2.6980618064       -5.8254113785        1.7833291042
 H        -7.3819030047       -4.3351645601       -0.3408247769
 H        -8.0589919377       -5.3528235598       -1.4734797448
 H        -7.7016494984       -3.4749223257       -3.3199605616
 H        -6.5103013865       -2.7845231167       -2.2080532012
 H       -10.5003951421        0.6741940871       -3.9567358962
 H       -10.4342479191       -0.2974249503       -5.2588823111
 H        -9.1276641280        0.8216396271       -4.9348372750
 H       -10.3602873631       -3.4731157651       -3.3735015978
 H       -11.3793374035       -2.1337052885       -3.7652004442
 H       -11.4527368564       -2.9091932635       -2.1339994074
 H       -10.7315642166       -1.2160252835       -0.5782749548
 H       -11.1964932984        0.0248814311       -1.8154772457
 H        -9.5156037913        0.0922540076       -1.1147048913
 H        -5.3674097637       -7.9770153203       -2.0341654602
 H        -3.8880784071       -7.7805575715       -1.1621050804
 H        -4.3043907955       -6.6106375641       -2.3137175982
 H        -6.9564384196       -7.3849606571       -0.2755499258
 H        -6.7402974425       -6.0666265915        1.0083386212
 H        -5.7156024505       -7.4800387073        0.9285463224
 H        -4.0261184438       -1.6701368965        4.3368861898
 H        -4.3509966012       -0.1281849484        3.6744861332
 H        -3.0465886868       -1.0864260952        3.0371151611
 H        -6.7661527948       -0.2873130119        2.5299714259
 H        -6.9346706079       -1.9158824140        3.3023736530
 H        -7.2035591271       -1.6608283899        1.5920664928
 H        -0.3840964882       -0.4397277919       -2.1040957572
 H        -1.1608971068       -1.8629484173       -1.6299749853
 H        -1.6418131277       -0.3806944511       -0.8084606798
 H        -1.6952999381        1.3628729840       -3.3362664419
 H        -2.4561297897        1.5845765718       -1.8225954959
 H        -3.4841707216        1.4693821124       -3.2111810578
 H         3.2609309883       -0.6404977406       -8.1247543212
 H         3.7124575666       -1.8524068738       -6.8713863986
 H         3.0264521239       -0.2390824524       -6.3538623630
 H         0.3478983594       -2.5646795185       -8.7268514375
 H         1.9739618758       -2.0199391025       -9.3227472167
 H         0.6912391789       -0.8679033871       -8.8545928461
 H         0.7136226073       -6.7533065091       -1.9868586398
 H        -0.5305451211       -7.8454101369       -2.5065217799
 H        -0.8852039110       -6.0883256714       -1.9730778287
 H         0.2220490691       -8.3684750815       -5.2142051511
 H         1.2853612413       -8.2155210550       -3.8280174690
 H         1.5847953144       -7.3979161365       -5.2162711094
 H        -7.5558548524       -4.0510581196       -6.1670943123
 H        -6.0933040972       -3.0940753368       -6.1533210840
 H        -6.3407313539       -4.2537340555       -4.7908718516
 H        -6.1381689370       -7.0787142198       -7.5635489697
 H        -7.6133588812       -6.3954710553       -6.7169006023
 H        -6.3597221462       -7.2728456301       -5.8701502236
 H        -3.1814874920       -5.6902625700      -11.6944334363
 H        -2.4417594132       -5.2569722094      -13.1921050980
 H        -4.1819515662       -4.7304162015      -12.8666963067
 H        -0.6263559466       -4.3606274741      -10.6622328231
 H        -0.4757092981       -2.9827430030      -11.8989704392
 H        -0.6468748283       -4.5526688117      -12.4737860007
 H        -1.2226271304        0.8752834390      -16.1323615951
 H        -1.7992006456        2.2082991446      -17.2526356628
 H        -1.1251540249        0.8145915417      -17.9102654497
 H        -4.6232797361        1.3224688803      -15.4382346564
 H        -4.1403692730        2.2839307907      -16.6855698467
 H        -3.0402059209        2.1173276380      -15.3188877819
 H        -7.1157910264        2.1084942959      -20.6176952896
 H        -5.4469581566        2.8496739788      -20.2405404216
 H        -6.0037092068        1.4486260809      -19.6422023544
 H        -7.3137790890        0.6667160367      -22.7660368442
 H        -6.8339005409       -0.5257652069      -21.6360594273
 H        -5.9177741172       -0.4545847815      -23.0717126119
 H        -3.7431093916        3.5930848993      -27.5553002266
 H        -3.3095474171        1.9688732186      -27.8824270692
 H        -2.3427483736        3.3576500431      -28.3748722896
 H        -0.6192420217        1.8483140862      -27.3992447253
 H        -1.2108204473        0.8727405848      -26.0678274555
 H        -0.3250806139        2.0836008214      -25.5838547674
 H         1.4863321136        7.7086162502      -21.9050571564
 H         0.2742840602        7.7571923637      -23.1890173852
 H         1.9534835018        7.1293373930      -23.4898781261
 H         1.6434736848        4.0305196486      -21.2977995854
 H         2.3648630858        5.7909158387      -21.0763384544
 H         2.6748021423        4.7500433088      -22.4087460198
 Na       -2.8692164642       -4.2177775330       -3.0427153846
 Na       -2.2309562942        3.1593977922      -22.1653248336
