232

 C        -0.6831659822        7.2264349877      -20.5633050354
 C        -0.6292740470        5.9717109106      -21.3951284997
 O        -1.3474376243        5.0308896924      -21.0791967331
 C         0.5695604380        5.8948487618      -22.4382362406
 C        -0.0105911924        5.1546367077      -23.6805460205
 O        -0.4350674340        4.0299451443      -23.4402816304
 C         0.0700953857        5.5914382577      -25.1558536357
 C        -0.3324376590        4.4411904451      -26.0697870692
 C        -1.8994409166        4.0347547538      -25.8303983770
 O        -2.7285417695        4.9263794384      -25.6489034092
 C        -2.4187775966        2.6770312272      -26.4439355217
 C        -3.4480937999        2.2833893080      -25.3448473184
 O        -3.0365521495        1.6348781145      -24.4015421265
 C        -4.9336871260        2.7319968837      -25.2685315013
 C        -5.8029948174        2.0235421891      -24.2275156664
 C        -5.2323749835        2.4569485208      -22.8551929356
 O        -4.5055355587        3.4433973791      -22.7908006770
 C        -5.4861680162        1.6639483511      -21.5532154529
 C        -4.2074400582        0.8084820017      -21.1152932354
 O        -3.1094407175        1.0995383753      -21.4483146284
 C        -4.4396258915       -0.4522745027      -20.2452407794
 C        -3.4364999712       -0.5815342269      -19.0747983102
 C        -3.9868221199        0.1476742262      -17.8400478560
 O        -5.1480447211        0.5457384292      -17.8091863985
 C        -3.0180282127        0.4387431388      -16.7382359999
 C        -2.8512132881       -0.9755685483      -16.0229577138
 O        -2.7592976503       -2.0175708930      -16.6455784448
 C        -2.7479621428       -0.9703320660      -14.4791635803
 C        -2.7728356900       -2.3712269735      -13.9238857750
 C        -2.6166054077       -2.5095800352      -12.3705919415
 O        -2.7421870657       -1.4023433287      -11.8488005529
 C        -2.4052691527       -3.8905617016      -11.6055159550
 C        -2.9113933116       -3.6395078162      -10.1464187810
 O        -2.3147468792       -3.5757884709       -9.1288869049
 C        -4.4558821305       -3.2251507419      -10.0868182738
 C        -4.9384382027       -3.4364000925       -8.7111781918
 C        -5.1177517414       -4.9147686092       -8.2754476416
 O        -4.9816685533       -5.7527324565       -9.1620636663
 C        -5.4469738358       -5.2150555649       -6.7257000024
 C        -4.1431378068       -5.3599262184       -5.9600191554
 O        -3.7008765792       -4.5147738200       -5.2439683906
 C        -3.1574794778       -6.5755365396       -6.3538105230
 C        -1.7589454123       -6.3085522418       -5.8258130471
 C        -1.5576683338       -6.2666426594       -4.3363977485
 O        -2.5482877643       -6.1795101528       -3.5846413500
 C        -0.1034296079       -6.2622435133       -3.8050953957
 C         0.4273557202       -4.8155848179       -4.1224938549
 O        -0.1806283577       -3.7700036333       -3.9024922244
 C         1.8424198611       -4.7096196086       -4.5151703943
 C         2.2820419719       -3.4210257519       -5.0876044834
 C         1.5675430822       -3.1993459990       -6.4430159222
 O         0.9520407486       -4.0392471135       -7.0674711069
 C         1.6250127968       -1.6602079628       -6.9479059348
 C         0.8239320810       -0.7935134276       -5.9533643010
 O         1.3751923514       -0.3059481996       -5.0016759738
 C        -0.7173191400       -0.7087736745       -6.2081077183
 C        -1.5205989162       -0.0085319210       -5.0341422420
 C        -2.1805898649       -1.0354373739       -4.0683157604
 O        -2.4385882671       -2.1930372613       -4.3956458983
 C        -2.4277418867       -0.5117970213       -2.6668349560
 C        -3.7491619090       -1.0446952439       -2.1373242080
 O        -3.9546644214       -2.2309186407       -2.0689221186
 C        -4.8410306645       -0.0744743337       -1.5006290011
 C        -5.5791112926       -0.7594250909       -0.2960164893
 C        -4.5571104326       -0.9151050075        0.8991422307
 O        -3.3988686575       -0.5441248064        0.8113126335
 C        -4.8869021453       -1.7717737931        2.1976036069
 C        -4.8932038079       -3.2949727781        1.7450089210
 O        -5.9891485233       -3.7663071563        1.3315549849
 C        -3.5799350941       -4.0175173765        1.7521903556
 C        -3.5420614167       -5.4979325576        1.2523298982
 C        -3.8429838377       -5.5240321693       -0.2013460589
 O        -2.9068013195       -5.0682443860       -0.9022366216
 C        -5.2204645087       -6.2007763124       -0.7340315481
 C        -5.8401534174       -5.0821285053       -1.7023290869
 O        -5.2081845203       -4.6139582075       -2.5874512171
 C        -7.2720899775       -4.5875201979       -1.3940344534
 C        -7.9703606279       -3.6527296012       -2.3639623166
 C        -8.8329756689       -2.5780926109       -1.6892276519
 O        -8.8500259706       -2.4940799793       -0.4841096721
 C        -9.8328687930       -1.6514335048       -2.4926861800
 C        -9.2214422540       -1.0827743139       -3.8047490540
 O        -8.2482525197       -1.5397513848       -4.3898695759
 C        -9.9671769163        0.0999428291       -4.3696183168
 C       -11.0053281567       -2.5410042604       -2.8084536334
 C       -10.2852429853       -0.5576249863       -1.3755330008
 C        -4.7517296565       -7.4034736079       -1.5161441354
 C        -6.1039559872       -6.7125557662        0.3756240491
 C        -3.9598997297       -1.5045797626        3.3854718654
 C        -6.3793726641       -1.4498405226        2.6568406415
 C        -1.2184751552       -1.0963440606       -1.7541564941
 C        -2.2547172087        1.0250596474       -2.4727892154
 C         3.1564972212       -1.1195508749       -7.0096095378
 C         1.1915095679       -1.5300736968       -8.4065272449
 C        -0.1373200083       -6.3588472429       -2.2444890272
 C         0.7905253565       -7.4040190747       -4.4611658638
 C        -6.1259626353       -3.9795266462       -6.1518230548
 C        -6.2692327239       -6.5100412696       -6.5133840894
 C        -3.0556718574       -5.0422059734      -12.3928921486
 C        -0.7529165507       -4.0673271244      -11.7234439551
 C        -1.6983980601        1.1121335890      -17.2268260906
 C        -3.7042832554        1.4456913204      -15.8259856456
 C        -5.8389072887        2.6670199467      -20.4706049758
 C        -6.7632029236        0.7055549955      -21.7652782765
 C        -3.1265658554        3.0264046148      -27.7287530458
 C        -1.5175737286        1.4980443018      -26.6002822428
 C         1.1811035379        7.3059159452      -22.7755770990
 C         1.6262757766        4.9197364643      -21.8539045984
 H         0.1417299351        7.4071695088      -19.8385406718
 H        -1.6225815214        7.2113464206      -20.0331751812
 H        -0.6352161961        8.1851327963      -21.1604934054
 H         1.0295267264        5.9214068418      -25.4542686567
 H        -0.5701163379        6.4578531313      -25.4716533802
 H         0.3255749478        3.6333037997      -25.9092430262
 H        -0.1769060776        4.8481371485      -27.1247362859
 H        -5.3600409255        2.7400669894      -26.2381303893
 H        -4.8954435822        3.8543142109      -25.1099972356
 H        -5.6159121513        0.9018016127      -24.2048914405
 H        -6.9271132727        2.1081048112      -24.3133764983
 H        -4.3234492705       -1.2612729085      -20.8961476449
 H        -5.4521366715       -0.3897701952      -19.8452925574
 H        -2.4314231117       -0.2419681702      -19.3926927279
 H        -3.3544868074       -1.6945958783      -18.9322572824
 H        -3.4499036820       -0.2378361289      -14.0827281149
 H        -1.8347872399       -0.4880792356      -14.2437753142
 H        -1.9653062958       -2.9734254695      -14.3645094442
 H        -3.6792293422       -2.9318232400      -14.1475366368
 H        -4.9869554496       -3.9830247763      -10.7561879761
 H        -4.4783378989       -2.2392099860      -10.4793106720
 H        -5.8664275528       -2.8975165596       -8.5543959655
 H        -4.2516410526       -3.1299069726       -7.9275296331
 H        -3.1159922092       -6.6300539368       -7.4078134207
 H        -3.4724212246       -7.5821055890       -6.0426742810
 H        -1.4699262539       -5.3233055357       -6.2555449979
 H        -1.0945940686       -7.1334649816       -6.1926181063
 H         1.9965909591       -5.5688693773       -5.2320563972
 H         2.5842268854       -4.9965873413       -3.6925334573
 H         3.3434088601       -3.3529171992       -5.3651645766
 H         2.1732798397       -2.5861634466       -4.3865805054
 H        -1.1213171236       -1.7919205686       -6.2709423875
 H        -0.8973355018       -0.2841629536       -7.1905672191
 H        -2.2921192986        0.6243567339       -5.4783378464
 H        -0.8323533718        0.6383147779       -4.5481299048
 H        -5.5669658867        0.2810157516       -2.2894613834
 H        -4.2980489603        0.6783627456       -1.0093060793
 H        -6.0289124961       -1.7967302211       -0.4656003005
 H        -6.4951802009       -0.1291695980       -0.1232670139
 H        -3.0671143850       -4.0423511090        2.7516671415
 H        -2.9496941661       -3.5428844715        0.9859830742
 H        -4.2634427975       -6.0864378548        1.8162118554
 H        -2.6323218825       -6.0904156857        1.4624264446
 H        -7.2066737694       -4.0120728739       -0.4362426861
 H        -7.8761328034       -5.4750490501       -1.0762701669
 H        -8.6535992224       -4.2851700636       -2.9547929150
 H        -7.3343285073       -3.2320299893       -3.1107703135
 H       -10.4938510562        0.8180693421       -3.7080978650
 H       -10.7438069165       -0.3272184025       -4.9514309582
 H        -9.3432159537        0.7285836413       -5.1169339189
 H       -10.7129317749       -3.0624361543       -3.6917167181
 H       -11.9693762534       -2.0211330690       -3.0350027971
 H       -11.2266624031       -3.2803159321       -2.0167762771
 H       -10.5595274292       -1.1737519271       -0.5915093232
 H       -11.0423665656        0.0763821915       -1.6918070754
 H        -9.3705765139       -0.0140370904       -1.1334051660
 H        -5.5462525866       -7.7392115081       -2.1969925009
 H        -4.3279600695       -8.2544162538       -0.9057089186
 H        -4.0124212498       -7.0743844859       -2.1897853701
 H        -7.0841960456       -7.1185895072        0.0361491677
 H        -6.3765448720       -5.8927216603        1.0167010919
 H        -5.4850338790       -7.4447588863        0.9701604164
 H        -4.2419888257       -2.0710856298        4.3285817687
 H        -4.1350199258       -0.5200975502        3.7760052662
 H        -2.9177605052       -1.6115314305        3.1827719793
 H        -6.5819402321       -0.3706919190        2.7960830239
 H        -6.6371713898       -1.8703962726        3.6537595590
 H        -7.0836593157       -1.8157345699        1.9498551117
 H        -0.3087505534       -0.8445765265       -2.2615007434
 H        -1.1339765629       -2.1909219256       -1.7566156282
 H        -1.3293172089       -0.6244712198       -0.7212134787
 H        -1.1360526752        1.2022596520       -2.6193642372
 H        -2.4289472633        1.2659824681       -1.4123842634
 H        -2.9303176309        1.5892822974       -3.1607693010
 H         3.0809564381       -0.0946440840       -7.3246976061
 H         3.6021778665       -1.6566745255       -7.8295244308
 H         3.6763564243       -1.2561909675       -6.0882077008
 H         0.1546000483       -1.8331614065       -8.3613253928
 H         1.8106788228       -2.2265541703       -8.9805741206
 H         1.2198534321       -0.4897498118       -8.7569527163
 H         0.9214260535       -6.3550953674       -1.9718440179
 H        -0.5841683337       -7.2885442530       -1.9195809742
 H        -0.5227668978       -5.4322474424       -1.7029313005
 H         0.4362065871       -8.4528972712       -4.2260490690
 H         1.9247421347       -7.3343496234       -4.2681580440
 H         0.6759347448       -7.3313020533       -5.5812184486
 H        -6.8779944281       -3.7276195698       -6.8610978872
 H        -5.4685181033       -3.1453121656       -6.2866821229
 H        -6.4363388790       -3.9385244304       -5.0795878145
 H        -5.6547136290       -7.3593503189       -6.2372638595
 H        -6.7742230947       -6.6816122553       -7.4575059942
 H        -7.0511735509       -6.4756533662       -5.8356974493
 H        -2.6011452671       -5.9604314624      -12.0866575880
 H        -2.7601479650       -5.0512955281      -13.3819207961
 H        -4.1388883048       -5.1296698138      -12.2788609456
 H        -0.5402164937       -5.0259989020      -11.2150086228
 H        -0.2808893022       -3.2460604966      -11.2351711675
 H        -0.3368735335       -3.9329834822      -12.6891248561
 H        -0.8988052458        0.3502776741      -17.5248266711
 H        -1.2263775218        1.6233632546      -16.3919119893
 H        -1.9350596696        1.7890107543      -18.0488023318
 H        -4.6659575079        0.9904717035      -15.6107214283
 H        -3.9704236297        2.4154542285      -16.2858827901
 H        -3.2627426989        1.6721626519      -14.8376120448
 H        -6.7583157308        3.2432472563      -20.7273325298
 H        -5.0076210959        3.3223410278      -20.1527654248
 H        -6.1783418878        2.2296798709      -19.6208915519
 H        -7.5982250528        1.0809243629      -22.3341790015
 H        -7.1962136930        0.4894024132      -20.7826901826
 H        -6.4120967059       -0.2844188293      -22.0892078264
 H        -3.8263154020        3.9118941230      -27.6100281620
 H        -3.7120638629        2.0948704670      -27.9604771859
 H        -2.3444875537        3.2693612410      -28.5826502581
 H        -0.4637819042        1.6969583968      -26.8847618809
 H        -1.9564741487        0.8429600512      -27.3370772449
 H        -1.4610888557        0.7603334584      -25.8729543545
 H         1.6872808823        7.7209999057      -21.9419797808
 H         0.4381837505        8.0379551130      -22.9391273093
 H         1.8785490688        7.2568365986      -23.6578883626
 H         1.3489319014        3.8757252210      -21.8042015555
 H         1.9211289091        5.1437061839      -20.8513811209
 H         2.5136490328        4.9745316647      -22.4330135624
 Na       -2.8270577613       -4.0479767522       -3.1783606377
 Na       -2.3038460606        3.0480146539      -22.4582311419
