232

 C        -0.7321063606        7.2766349952      -20.5259824653
 C        -0.6227088903        6.0120191911      -21.3578651778
 O        -1.4583136085        5.0985304436      -21.2217306885
 C         0.5404592996        5.8468673781      -22.4660212227
 C        -0.0895548240        5.0015424369      -23.6676444897
 O        -0.5697169528        3.8777023426      -23.4855715076
 C        -0.0911410994        5.5038173392      -25.1078110627
 C        -0.4550308460        4.3967588184      -26.1233472824
 C        -1.9436998006        4.0150850764      -26.0592853356
 O        -2.6055387471        4.8304445610      -25.5251168461
 C        -2.5539056847        2.6124185253      -26.5704406230
 C        -3.5216926334        2.1951920110      -25.3267731101
 O        -3.0414117318        1.6227406329      -24.3666741734
 C        -4.9573693981        2.6340001666      -25.3632895803
 C        -5.7392643149        2.1021031787      -24.2227604994
 C        -5.2325866187        2.4709606186      -22.7940228712
 O        -4.5291071350        3.4463369610      -22.6807182336
 C        -5.6101357238        1.7811085509      -21.4167923369
 C        -4.2791119243        0.9091740517      -21.1040605714
 O        -3.1526979804        1.1582630852      -21.4952920456
 C        -4.4881888845       -0.4247759768      -20.3159639032
 C        -3.5231898716       -0.5134873608      -19.1326311828
 C        -4.0002178402        0.2483446368      -17.8975492387
 O        -5.1681496980        0.5813426683      -17.7870625797
 C        -3.0576293222        0.3971019135      -16.7164306262
 C        -2.8334800718       -1.0751816774      -16.0711972415
 O        -2.8540739092       -2.0454705172      -16.7516926838
 C        -2.7828573374       -1.1701356260      -14.5325750118
 C        -2.6440919320       -2.5136559236      -14.0420113366
 C        -2.5727276789       -2.4770624925      -12.3701000776
 O        -2.6830200922       -1.5124881957      -11.7124268761
 C        -2.2679349715       -3.8091728605      -11.6559870532
 C        -2.7919357468       -3.6147644210      -10.1744147354
 O        -2.1931541290       -3.6465445588       -9.1225546166
 C        -4.4246894750       -3.2744399153      -10.0254064506
 C        -4.8646794886       -3.3930919046       -8.6364401187
 C        -5.0366359550       -4.8857768448       -8.2703457917
 O        -5.0078615511       -5.7783876902       -9.0939714236
 C        -5.3984007846       -5.1592681956       -6.8834907438
 C        -4.0451854992       -5.3083571957       -6.0725691200
 O        -3.7590776639       -4.4728039190       -5.2558275872
 C        -3.1193088958       -6.5419651447       -6.2631463327
 C        -1.6558378247       -6.3828647172       -5.9087040394
 C        -1.5281385916       -6.2931692244       -4.3114585226
 O        -2.4451548426       -6.1967592510       -3.5736965713
 C        -0.0542645043       -6.1802591711       -3.7279970304
 C         0.4378731744       -4.7413678407       -4.1018278538
 O        -0.3807633112       -3.8627152520       -4.0673070541
 C         1.8976077751       -4.6687688731       -4.5567522492
 C         2.3263295827       -3.3718256636       -5.1779512905
 C         1.5714671818       -3.1046027932       -6.4606660020
 O         1.0476626493       -4.0286633584       -7.0465885619
 C         1.6259496025       -1.6554112496       -6.9543618546
 C         0.8617035029       -0.7933221370       -5.8595339076
 O         1.4196297626       -0.2412368730       -4.9556475513
 C        -0.6645300442       -0.6727901490       -6.1533621458
 C        -1.5051837158        0.0997711573       -5.0853271617
 C        -2.0781863247       -0.9085121045       -4.1082152227
 O        -2.2731801749       -2.0320818396       -4.4902662608
 C        -2.3719568034       -0.4655728481       -2.5883188037
 C        -3.7233080452       -1.0072279838       -1.9507268826
 O        -3.9403016599       -2.2125966033       -1.9855917441
 C        -4.8528313804       -0.0341705276       -1.3445919079
 C        -5.4759932671       -0.7930564060       -0.1601858281
 C        -4.4869813774       -1.0470313048        0.9483902174
 O        -3.3760583497       -0.5779207240        0.8207597176
 C        -4.9121788548       -1.7961444202        2.1780893649
 C        -4.9339263431       -3.3504968096        1.7643688691
 O        -5.9489709554       -3.8268315371        1.3334698239
 C        -3.5630394534       -3.9540686821        1.7880023279
 C        -3.5137362421       -5.4322320494        1.3110514499
 C        -3.7970016401       -5.5726401378       -0.1845226851
 O        -2.9694155549       -5.1624843305       -0.9783418253
 C        -5.1699292195       -6.1564462161       -0.7162671274
 C        -5.8857539716       -5.1052447926       -1.6850571903
 O        -5.2675425872       -4.7400056907       -2.7085503390
 C        -7.3531676832       -4.6393395278       -1.3434551147
 C        -8.0329589649       -3.8356580063       -2.4636898905
 C        -8.8724925994       -2.7158166627       -1.7557718711
 O        -8.6752795737       -2.5408730813       -0.5795924832
 C        -9.8597648064       -1.7431575156       -2.4663838162
 C        -9.3091737216       -0.9967837846       -3.7829305412
 O        -8.3194696216       -1.5777437041       -4.2236249491
 C        -9.9707768463        0.1379044296       -4.4894700294
 C       -11.1327573779       -2.5687111334       -2.7627079152
 C       -10.2870882914       -0.5733736398       -1.4556229857
 C        -4.8080118936       -7.3881476382       -1.6592885279
 C        -6.1488561398       -6.7186992739        0.2871081919
 C        -3.9072828763       -1.5948763027        3.3251075331
 C        -6.3589985375       -1.3947321450        2.6060606063
 C        -1.3347906093       -1.3661069498       -1.8127656441
 C        -2.1839672565        1.1397231807       -2.3817231649
 C         3.1051462048       -1.1416349507       -6.8532617064
 C         1.0789219668       -1.5218280497       -8.4162656669
 C        -0.1461697432       -6.5073164955       -2.1581241933
 C         0.8969510355       -7.2853501537       -4.1068223912
 C        -6.2248790248       -3.9597341688       -6.2575063186
 C        -6.2612353310       -6.4970562156       -6.6306926231
 C        -3.0245894308       -5.0157561361      -12.2819664493
 C        -0.7507542604       -4.0334907907      -11.8203952775
 C        -1.6810630695        1.0894403646      -17.0249655363
 C        -3.7167711035        1.6145735015      -15.8319472904
 C        -5.7388194845        2.8939807420      -20.3361699958
 C        -6.8727127628        0.8678945346      -21.6824403302
 C        -3.1662738314        3.0346067168      -27.9345889158
 C        -1.4240313594        1.5464612023      -26.7753904249
 C         1.1199584731        7.2245002932      -22.7958824382
 C         1.6496008412        4.9834504525      -21.8629408167
 H         0.0966446732        7.4629349612      -19.7858725161
 H        -1.6992829188        7.4534724042      -20.0285657984
 H        -0.5755557978        8.1026926133      -21.2230663567
 H         0.7639382480        6.0516702902      -25.5037410898
 H        -0.9511486573        6.2656548368      -25.1402744010
 H         0.1203610074        3.5761352320      -25.7559543393
 H        -0.1397936654        4.6814916648      -27.0818690182
 H        -5.4775532258        2.5378670502      -26.3086544678
 H        -4.8811138793        3.8429785143      -25.3443298797
 H        -6.0255211719        1.0270280953      -24.2801070870
 H        -6.7485744450        2.6123816700      -24.2448433772
 H        -4.3054030414       -1.1885153394      -21.0119691429
 H        -5.4699520478       -0.4346104103      -19.9570852882
 H        -2.4801675277       -0.2389255152      -19.4838815842
 H        -3.4668401425       -1.6094219680      -18.9053116529
 H        -3.6858191894       -0.7079121712      -14.1857071099
 H        -2.0051095437       -0.4439371209      -14.1512266251
 H        -1.8355780078       -3.0681634819      -14.3665523558
 H        -3.5097591961       -3.0832330555      -14.3829105440
 H        -4.9699625395       -4.0486141463      -10.6542814801
 H        -4.5227758718       -2.1624151544      -10.4638417473
 H        -5.8388716384       -2.7746848539       -8.4178702481
 H        -4.1758015414       -3.0874236882       -7.8887213639
 H        -3.2330091445       -6.9203655601       -7.3080488254
 H        -3.5769979715       -7.3331504299       -5.6557513665
 H        -1.4577468365       -5.3254923900       -6.2952676771
 H        -1.0122895987       -7.0920298303       -6.3864125849
 H         2.0921671672       -5.6016687651       -5.1812033254
 H         2.6110510558       -4.9083321322       -3.6822380704
 H         3.3972134065       -3.1995199102       -5.3745038132
 H         2.0546682173       -2.5767636670       -4.4977658264
 H        -1.1118274383       -1.6217529358       -6.3972226900
 H        -0.6999275485       -0.0607687091       -7.0815232454
 H        -2.2357096616        0.6243540054       -5.5785887954
 H        -0.8529196769        0.7630969326       -4.6318794323
 H        -5.6173148936       -0.1023438789       -2.1022604371
 H        -4.4993021859        0.9901299313       -1.0721833757
 H        -5.9609401255       -1.7478723112       -0.5766762027
 H        -6.3605189973       -0.2294108832        0.1512463355
 H        -3.1443983034       -3.9849957637        2.8142626975
 H        -2.9284889472       -3.4310361849        1.1136425149
 H        -4.1657675742       -6.0600445291        1.9374091826
 H        -2.5597724160       -5.8825183931        1.4448747101
 H        -7.3675014068       -3.9741897742       -0.5310534084
 H        -7.9006371960       -5.4918136962       -0.9800266905
 H        -8.7022028391       -4.4946037158       -3.1306420239
 H        -7.3476826565       -3.3189513473       -3.2206616115
 H       -10.1182696453        0.9478155558       -3.7894116849
 H       -10.9694691095       -0.0719256996       -4.9281166497
 H        -9.3621458575        0.5254295798       -5.2672019326
 H       -10.9175526085       -3.2908312515       -3.5136765216
 H       -11.9528414459       -1.8688508594       -3.1522617171
 H       -11.5510119675       -3.0555024598       -1.9158148129
 H       -10.3320237914       -0.9593996479       -0.4797010024
 H       -11.2256966004       -0.1785881416       -1.7909165362
 H        -9.5285978913        0.1579500376       -1.5204063995
 H        -5.6463702486       -7.5868065128       -2.2854083972
 H        -4.4325173560       -8.2499271818       -1.1193311808
 H        -4.0619148586       -7.0983735045       -2.3644352452
 H        -6.8732431453       -7.3047683338       -0.3298842630
 H        -6.8657361458       -6.0044298316        0.8730071740
 H        -5.5936528591       -7.3567372337        0.9411754185
 H        -4.0853866672       -2.0011590213        4.2484914799
 H        -3.8004934489       -0.5528183175        3.5930746121
 H        -2.9356077135       -1.8420513501        2.9145994219
 H        -6.4313864338       -0.3170984409        2.7941186407
 H        -6.5444432440       -1.7795783344        3.6258393092
 H        -7.1959366772       -1.7121362255        1.9444579584
 H        -0.2920983780       -1.2595858008       -2.1459839248
 H        -1.5146515752       -2.3963731301       -2.0843010085
 H        -1.4946312526       -1.1860689921       -0.7883220184
 H        -1.2203093434        1.3509415447       -2.8124262218
 H        -2.0744219325        1.4077353686       -1.2986474874
 H        -3.0007762202        1.6819301949       -2.8865704710
 H         3.1236431702       -0.0232333677       -6.7696465079
 H         3.5459467490       -1.4306499321       -7.7859145797
 H         3.5797446838       -1.6299654986       -6.0700066142
 H        -0.0130548384       -1.6597605953       -8.3046181739
 H         1.5702379022       -2.2518822911       -9.1129005083
 H         1.2214981327       -0.4691553945       -8.7131740386
 H         0.8089127556       -6.4264331235       -1.6885767561
 H        -0.5809576972       -7.5398560315       -2.0191883585
 H        -0.7907157970       -5.7878388968       -1.6790066636
 H         0.4841982364       -8.3009020763       -3.9617995452
 H         1.8117456132       -7.1740187497       -3.4139661744
 H         1.2859954793       -7.2521031450       -5.1208706507
 H        -7.0558648714       -3.7280971656       -6.9175763124
 H        -5.7103163712       -3.0110157509       -6.1005500768
 H        -6.5446885788       -4.3005312389       -5.1960098131
 H        -5.6163178323       -7.2993647329       -6.1978989540
 H        -6.7923736127       -6.8340217262       -7.5193721626
 H        -7.0813458784       -6.3363146707       -5.8992184905
 H        -2.7851523714       -5.9118011440      -11.7410368492
 H        -2.6913343603       -5.3590602263      -13.3338316028
 H        -4.0536119795       -4.8872471856      -12.2546220702
 H        -0.5683190436       -5.1142272767      -11.8464890218
 H        -0.1874874734       -3.6203763213      -11.0265057648
 H        -0.3486447266       -3.4265096830      -12.6255936691
 H        -1.2207077545        0.5873641548      -17.8387924690
 H        -0.9531442715        0.7798451209      -16.1957800148
 H        -1.7444836057        2.1596140915      -17.2677976087
 H        -4.6777826336        1.6051525489      -15.3847243643
 H        -3.7794212720        2.4168136018      -16.5170319219
 H        -3.0405394297        1.9994840753      -15.0482040732
 H        -6.5419608948        3.5869132106      -20.4487588019
 H        -4.8563563221        3.4455090718      -20.3847772973
 H        -5.8937568960        2.5497976128      -19.2929546496
 H        -7.6166430608        1.4658280298      -22.2780042775
 H        -7.4004914711        0.6102396032      -20.8079070693
 H        -6.6048125566       -0.0401084412      -22.1508674268
 H        -3.9020664039        3.8863488155      -27.8330313866
 H        -3.6090924870        2.1683880888      -28.4883933735
 H        -2.2724138474        3.4251172403      -28.4832649451
 H        -0.3926621823        1.9539949611      -26.7125446166
 H        -1.5167975156        0.9008845160      -27.6306429395
 H        -1.3338560635        0.6725062254      -26.0302553452
 H         1.2437369570        7.8130842621      -21.8853767006
 H         0.5481872256        7.9115648574      -23.4069144472
 H         2.0890071033        7.0537791092      -23.2555702724
 H         1.3276646176        3.8924107905      -21.7293328517
 H         1.8218089000        5.2098635824      -20.7981360243
 H         2.5647116548        5.0028874921      -22.3679761002
 Na       -2.7649516226       -3.9768856819       -3.0641764968
 Na       -2.2790741383        3.0507245349      -22.4866233841
