232

 C        -0.8867802954        7.1213152007      -20.6968662843
 C        -1.0144410634        5.9680252062      -21.6176641488
 O        -1.9759104815        5.2277239193      -21.5859702940
 C         0.2904721821        5.6662503328      -22.6272726583
 C        -0.0731583968        4.6430616696      -23.8140520055
 O        -0.2229907112        3.4474143536      -23.6340921760
 C        -0.1354736229        5.2072818289      -25.2628601490
 C        -0.7820621041        4.4087392523      -26.3717408320
 C        -2.1477612357        3.9154930293      -26.0671441866
 O        -2.8305734558        4.6195673508      -25.4016770704
 C        -2.7469815746        2.5699308268      -26.5682926015
 C        -3.5261109334        2.0964416869      -25.3610478539
 O        -2.9790924089        1.3469342516      -24.5625782886
 C        -4.9857495545        2.5221463205      -25.2228295138
 C        -5.6831781893        2.0193082080      -24.0159353904
 C        -5.1579203260        2.8762583625      -22.8052149024
 O        -4.6942235608        3.9890125046      -22.9651488096
 C        -5.5695945753        2.2481541250      -21.4260998542
 C        -4.4543571752        1.2404536516      -21.0882430694
 O        -3.2409470855        1.4838513393      -21.2705543800
 C        -4.7769215419       -0.0672569930      -20.3318215878
 C        -3.8523489594       -0.4105619016      -19.1572461285
 C        -4.1272381807        0.4534150608      -17.9849768732
 O        -5.0913617630        1.1762410610      -17.9146897594
 C        -3.1435692823        0.3233093478      -16.6455367686
 C        -3.1266781687       -1.2443133499      -16.0917161944
 O        -3.1365149468       -2.2007708940      -16.8338423327
 C        -3.0552758008       -1.5351282381      -14.5014894741
 C        -2.3341085330       -2.7148154950      -13.9921266043
 C        -2.3217346218       -2.5606833868      -12.4672498051
 O        -2.5367914627       -1.5121838206      -11.9274649136
 C        -1.9937716534       -3.8962952765      -11.7440639755
 C        -2.5186297938       -3.6479496968      -10.1967376203
 O        -1.7608996492       -3.9410159498       -9.2936796762
 C        -3.9717284999       -3.0549175973       -9.9286272834
 C        -4.3633269744       -3.2327390275       -8.5112727396
 C        -4.9124890198       -4.8264764590       -8.3216111653
 O        -4.7433944577       -5.6334567149       -9.1825139846
 C        -5.4119662407       -5.2612043605       -6.8421430518
 C        -4.0174978005       -5.3213355695       -6.0658419049
 O        -3.5949765548       -4.3601632691       -5.4088061903
 C        -3.0305442424       -6.4898961253       -6.2862133212
 C        -1.6597316927       -6.3011056576       -5.6493444680
 C        -1.4639093576       -6.6138910207       -4.1114524118
 O        -2.3556673861       -7.1637884579       -3.5531234234
 C         0.0308109232       -6.3300203492       -3.5578412155
 C         0.4346555600       -4.8132997761       -4.0467205114
 O        -0.3900643385       -3.9437397031       -3.8961186276
 C         1.8927662849       -4.5559621441       -4.4470146687
 C         2.1013125141       -3.0546614970       -4.7695158080
 C         1.5900890704       -2.8155677050       -6.2503969756
 O         1.4165625799       -3.8380274542       -6.8908122885
 C         1.4955140964       -1.3964299853       -6.8166200398
 C         0.6781969906       -0.5502361725       -5.7716860226
 O         1.3227883691       -0.3407913305       -4.7517972360
 C        -0.7669024660       -0.0175048269       -5.9869614914
 C        -1.3843107819        0.4457230968       -4.6860625981
 C        -1.8940177474       -0.7057440849       -3.8032897213
 O        -2.4451053425       -1.6956966762       -4.2109735829
 C        -1.9705128168       -0.4078028557       -2.2661746532
 C        -3.4432101274       -1.0028408242       -1.8306600336
 O        -3.7384433024       -2.1429191125       -2.1393507552
 C        -4.7121762906       -0.0260257452       -1.2423090042
 C        -5.2922264149       -0.4865683299        0.0134624433
 C        -4.2331864746       -1.0018328994        1.0256542271
 O        -3.0619146740       -0.9748025632        0.7278236985
 C        -4.7766539052       -1.8270290593        2.2061361205
 C        -4.8394485688       -3.3787620043        1.8322005084
 O        -5.8288931424       -3.8249304575        1.3720308711
 C        -3.5161415697       -4.1259982834        1.8019376957
 C        -3.8206661383       -5.5287157760        1.1630438351
 C        -4.1495383010       -5.5458515598       -0.3895923471
 O        -3.3681318137       -4.8833754918       -1.0285012037
 C        -5.3250381452       -6.3085233096       -0.9906447393
 C        -6.0773492946       -5.2587395857       -1.8178656376
 O        -5.6012480136       -4.5531367454       -2.7223502349
 C        -7.5491177083       -4.9839957355       -1.5048924524
 C        -8.1720829944       -3.9287801931       -2.4092901652
 C        -8.7030640126       -2.6858650296       -1.7048286603
 O        -8.1761389533       -2.3243142459       -0.6726653220
 C        -9.8682067011       -1.8744038139       -2.3764910997
 C        -9.3685183155       -1.2793264940       -3.8010818935
 O        -8.3262171429       -1.7320502377       -4.2170413171
 C       -10.1195797425       -0.2454404035       -4.6529003942
 C       -11.0080496221       -2.8346577848       -2.8329019276
 C       -10.3827061295       -0.7602863490       -1.4821794134
 C        -4.7612899506       -7.4592738508       -1.9106389729
 C        -6.3200739022       -6.9852277400        0.0005316777
 C        -3.8765715144       -1.5299842620        3.4240782375
 C        -6.1655462936       -1.4945106838        2.5498098809
 C        -0.8729288687       -1.3451891749       -1.6340702984
 C        -1.8091969366        1.0411865131       -1.9548911327
 C         2.9204643587       -0.6338600719       -6.8860106132
 C         0.8652692098       -1.5057638695       -8.2103794497
 C        -0.0463447647       -6.1256519223       -2.0414936644
 C         0.7902372929       -7.5793385110       -3.9017896196
 C        -6.2981470333       -4.2651395830       -6.1397413496
 C        -5.8501998709       -6.7423203196       -6.7891653203
 C        -2.7719038440       -5.0835357799      -12.3430806816
 C        -0.4293258590       -4.1712014016      -11.7907259728
 C        -1.6907096558        0.7767150225      -17.2060865703
 C        -3.6215061291        1.3926599996      -15.8317478838
 C        -5.4091964975        3.4131461511      -20.3625844399
 C        -6.9914162153        1.7498036901      -21.4693416511
 C        -3.5379165403        2.9745191721      -27.8019373350
 C        -1.6411679739        1.6340309902      -27.0983299784
 C         0.8386887547        7.0516728630      -23.0006866381
 C         1.2408093812        4.9147807724      -21.6608780190
 H         0.1422433610        7.4021158891      -20.3862737954
 H        -1.4713959249        6.9485640243      -19.7469922394
 H        -1.3851540024        7.9662419709      -21.1431071413
 H         0.8359603575        5.4662165920      -25.6556498320
 H        -0.7339566245        6.1255336733      -25.3102661317
 H        -0.1613019579        3.5151798450      -26.4497052741
 H        -0.7773076548        5.0328064203      -27.1992426757
 H        -5.6334191988        2.3894815455      -26.1312948418
 H        -4.9812050905        3.6790341340      -25.1063482405
 H        -5.6456663083        0.9257370748      -23.7654336220
 H        -6.7993978745        2.1910833134      -24.0996272863
 H        -4.7528616321       -0.7977719493      -21.1102782799
 H        -5.7608994813        0.0332473898      -19.9946008253
 H        -2.7661084063       -0.3229628029      -19.4556895193
 H        -3.9151438534       -1.4793872650      -18.8580869256
 H        -4.0702274063       -1.4331317469      -14.2203444112
 H        -2.4237081652       -0.7177516656      -14.0577530621
 H        -1.3736685668       -2.7217352927      -14.4320824159
 H        -2.7927131838       -3.6709835247      -14.2970256340
 H        -4.5180747308       -3.5864383726      -10.7352377162
 H        -3.9078039996       -1.8560218590      -10.0245450016
 H        -5.0895352735       -2.4235044291       -8.1783577118
 H        -3.5145865494       -3.0684453853       -7.9241309537
 H        -2.8803107038       -6.6252313080       -7.3625225437
 H        -3.4440306845       -7.4234219445       -5.9937514801
 H        -1.3664663806       -5.1860276854       -5.7418128181
 H        -0.9297324286       -6.8106014356       -6.2803493838
 H         2.1410667810       -5.1743977215       -5.3524472227
 H         2.6454551200       -5.0441399227       -3.7165558211
 H         3.1442090517       -2.6803676955       -4.7149835531
 H         1.4375069964       -2.4064179590       -4.2045692551
 H        -1.4104040314       -0.8044935136       -6.3950900459
 H        -0.6793235010        0.8476455948       -6.7358685655
 H        -2.2243085913        1.0221031375       -4.9057292856
 H        -0.6143550413        1.0252078541       -4.2289334653
 H        -5.4356286722       -0.0642163825       -2.0445433117
 H        -4.3793603480        1.0670139336       -1.1506240116
 H        -5.9368864437       -1.4027614412       -0.2930455906
 H        -6.1051300467        0.1482795888        0.4339516551
 H        -2.9990127584       -4.4260939842        2.7602533786
 H        -2.7209266313       -3.6315416492        1.2521282588
 H        -4.6807882025       -5.8593700603        1.7560664476
 H        -2.9487535934       -6.1572048420        1.2696441101
 H        -7.6285901280       -4.7886023506       -0.4143375606
 H        -8.1368616859       -5.9501710379       -1.6665492278
 H        -8.9623352926       -4.4065644410       -2.9786709294
 H        -7.3907432808       -3.6112180636       -3.1035227120
 H        -9.5027756274        0.6572640670       -4.4966528007
 H       -11.1886012159        0.0719784682       -4.3295612825
 H       -10.3393365524       -0.4440653528       -5.6564135648
 H       -10.6979114904       -3.7320031398       -3.3925128895
 H       -11.7193048425       -2.1897810474       -3.4010867898
 H       -11.6050942404       -3.1586182334       -1.9786382796
 H       -11.0620061442       -1.2062113194       -0.7658244563
 H       -10.9891942058       -0.1232747070       -2.1230633731
 H        -9.5947222593       -0.3089655085       -0.9873689220
 H        -5.5480176688       -8.2042634710       -2.0904080698
 H        -3.8482367372       -7.8855529309       -1.5167652274
 H        -4.5058319890       -7.0654821124       -2.9520210818
 H        -7.0751668580       -7.6815554511       -0.4399059282
 H        -6.8626253334       -6.2748536346        0.7158879187
 H        -5.7242363169       -7.6207996746        0.6408076922
 H        -3.9636323837       -2.3161815644        4.1283865815
 H        -4.0096600219       -0.5405325708        3.9514139241
 H        -2.7717174657       -1.5247143380        3.1688063846
 H        -6.3867638299       -0.5178156766        2.8951041091
 H        -6.3389949840       -2.1044204225        3.4151254694
 H        -6.9456974662       -1.8764160833        1.8657798454
 H         0.2220868196       -1.1463120711       -1.9526903862
 H        -1.1783157745       -2.4206147826       -1.8259517166
 H        -0.8965285714       -1.1268436079       -0.5839312002
 H        -0.8737506759        1.4448601559       -2.3169212157
 H        -2.0446770547        1.2554279389       -0.8594308326
 H        -2.5496207257        1.5877279120       -2.5934080210
 H         2.9080384635        0.0142135619       -7.7816597552
 H         3.6611031635       -1.3920777744       -6.9181978348
 H         3.0412957971       -0.0115346690       -6.0270741652
 H         0.0155933655       -2.1810182653       -8.1988904799
 H         1.5900058809       -1.8950181059       -8.9220925190
 H         0.6610438559       -0.4890147486       -8.4885580907
 H         0.9310478361       -6.0936212831       -1.5789233725
 H        -0.6578357617       -6.9240301498       -1.4933697505
 H        -0.6802987119       -5.2784285834       -1.9023932365
 H         0.3904388068       -8.2894090607       -3.1449631371
 H         1.8416766945       -7.5964862484       -3.5248730205
 H         0.6275991463       -7.8940694329       -4.9373487511
 H        -7.3045447388       -4.2323596512       -6.5206653043
 H        -5.8515977858       -3.2882061025       -6.1522214716
 H        -6.3916083675       -4.5234307584       -5.0775755173
 H        -5.4779988657       -7.3209653935       -7.5944556993
 H        -6.8825502244       -6.8470291628       -6.7953394171
 H        -5.5025480224       -7.0815498896       -5.8085454738
 H        -3.0241841801       -5.7603422203      -11.5909741207
 H        -2.2447127909       -5.6924289872      -13.1323334642
 H        -3.6539641339       -4.8820199777      -12.8264822811
 H        -0.0264997544       -3.8978483515      -12.7906883640
 H        -0.2647160093       -5.2164889969      -11.8626750822
 H         0.1666998747       -3.6570608515      -10.9975860626
 H        -1.7684587328        1.5243494389      -17.9313883044
 H        -1.0870414423       -0.1290392440      -17.5126376030
 H        -1.1866146490        1.3576305720      -16.3908965556
 H        -4.6885047433        1.2381111242      -15.5803695291
 H        -3.5794009504        2.3638008021      -16.3033782648
 H        -3.1887725953        1.5965495353      -14.8295487262
 H        -5.9283980081        4.2581317547      -20.6267194448
 H        -4.4809207282        3.8618168170      -20.3987799055
 H        -5.6581034633        3.1152810692      -19.3043193732
 H        -7.6720488853        2.6567830328      -21.6825103120
 H        -7.2049259037        1.3852889983      -20.4742199197
 H        -7.2026412488        1.0061617643      -22.2367363577
 H        -4.1580090659        3.9035661196      -27.5673011070
 H        -4.1882659164        2.0802166987      -28.1137938855
 H        -2.8955964215        3.0144710088      -28.6754957752
 H        -1.1991740992        1.7473355178      -28.0353502709
 H        -1.9145229343        0.6020438958      -27.0412993128
 H        -0.6733162077        1.7940642667      -26.5559799617
 H         1.3538603410        7.5657706570      -22.1689868787
 H         0.0069482604        7.6852691313      -23.3529045164
 H         1.5155640663        7.0421790999      -23.8095149990
 H         0.6395037059        4.2082330018      -21.1400952965
 H         1.5667170050        5.4584707245      -20.8341711021
 H         2.1235622466        4.4671659022      -22.0882046473
 Na       -3.0035174548       -4.0811288352       -3.3581290941
 Na       -2.4221962793        3.1723381078      -22.6420591735
