232

 C        -1.2903466913        7.0406229949      -21.0678957412
 C        -1.1833090403        5.8443172885      -22.0747854725
 O        -2.0351709763        5.0163343284      -22.0205480690
 C         0.2140476702        5.6228015883      -22.7478167157
 C        -0.1148384451        4.7932638743      -24.0255877772
 O        -0.3909535638        3.6485382143      -23.8109602318
 C        -0.0863446393        5.2527351364      -25.4789422753
 C        -0.7003864993        4.1643313992      -26.3710451356
 C        -2.1609065054        3.8130564557      -25.9964122000
 O        -2.7344599751        4.6189605995      -25.2883973177
 C        -2.9136129529        2.5751294204      -26.6357968648
 C        -3.8025175122        1.9498400181      -25.4021448414
 O        -3.1487307577        1.4677384720      -24.4819498350
 C        -5.3482442745        1.9757660366      -25.2106119175
 C        -6.0182695527        1.7577090531      -23.7960131803
 C        -5.5096414879        2.9618728184      -22.7940752955
 O        -4.8627342081        3.8871088902      -23.2070217880
 C        -5.6517559894        2.7837801238      -21.2560952815
 C        -4.5943466598        1.5454014446      -21.0202730293
 O        -3.3811726197        1.7999112819      -21.1333771226
 C        -5.0187121766        0.2019113405      -20.4318216057
 C        -4.1020160154       -0.2179813026      -19.1880292618
 C        -4.1908323399        0.5815158909      -17.9562813235
 O        -4.8339989272        1.6066967739      -17.9102571415
 C        -3.1941414578        0.2447466100      -16.7075821720
 C        -3.2956218173       -1.2944323053      -16.1044115056
 O        -3.3022251300       -2.2290106968      -16.9068393083
 C        -3.2140131706       -1.6031942876      -14.5925464090
 C        -2.4063472378       -2.7681513358      -14.1029945297
 C        -2.2139672486       -2.5857226260      -12.5871469852
 O        -2.2467125246       -1.4573369508      -12.0778254731
 C        -1.8969445984       -3.9447732515      -11.7457260413
 C        -2.2838978289       -3.6625355474      -10.2316409244
 O        -1.6173410319       -4.1498017801       -9.3268734212
 C        -3.5746209792       -2.9127881474       -9.9179921667
 C        -4.1358294734       -3.2569429799       -8.6299538309
 C        -4.6480866248       -4.8655329739       -8.5220854511
 O        -4.6059989718       -5.6054510206       -9.4210169703
 C        -5.1423750276       -5.4251804549       -7.1023847812
 C        -3.9107616827       -5.5018513748       -6.1671963590
 O        -3.5875250516       -4.5743539465       -5.3973037629
 C        -2.9414292761       -6.6278462797       -6.2551161901
 C        -1.5447342610       -6.4184845263       -5.6572635071
 C        -1.2191148851       -6.7764877782       -4.2592440766
 O        -2.0384311071       -7.4770342998       -3.6941302434
 C         0.0730268463       -6.2504588009       -3.4111274460
 C         0.3170145580       -4.8006584626       -3.6890405511
 O        -0.5794508976       -3.9888645574       -3.5007450098
 C         1.7976767325       -4.3905771145       -4.0532528262
 C         1.9948795927       -2.9144335222       -4.4857263373
 C         1.5787154593       -2.7224661391       -6.0892800074
 O         1.4922528474       -3.6653685572       -6.7986823234
 C         1.2436329793       -1.1652855014       -6.6371643197
 C         0.4974576822       -0.3999692506       -5.4951906426
 O         1.1096991988       -0.2491736569       -4.4055190865
 C        -0.7790227093        0.3498327664       -5.7965350844
 C        -1.6280479841        0.6673877067       -4.5265787339
 C        -1.8989432128       -0.5658013947       -3.6407074409
 O        -2.1281513866       -1.6688201727       -4.0823330747
 C        -1.7903496138       -0.4961608096       -2.0644562370
 C        -3.3115333980       -0.9155260193       -1.5255828925
 O        -3.7759099973       -2.0109520090       -1.8377721436
 C        -4.3826227642        0.0217125214       -1.0882798384
 C        -5.2408977773       -0.5927439632       -0.0510709548
 C        -4.1457857082       -1.2090612361        0.9623097686
 O        -2.9130176932       -1.1892245438        0.7248688180
 C        -4.7195204374       -1.9377797539        2.2097352659
 C        -4.9015507590       -3.4612150054        1.7737368749
 O        -5.9316402026       -3.8053112002        1.2623180407
 C        -3.6930041760       -4.3260971105        1.8464141033
 C        -3.7849232162       -5.7080976703        1.1793454579
 C        -3.9227322357       -5.6244232974       -0.4455231557
 O        -3.0760326454       -5.0085878079       -0.9796525797
 C        -5.1741381600       -6.4096001505       -1.0877521147
 C        -5.9177227080       -5.2893335028       -1.9159317760
 O        -5.5555650233       -4.7658538372       -2.9532261868
 C        -7.3466001617       -4.8976584144       -1.4125625634
 C        -8.0996754964       -4.0277068226       -2.4550539393
 C        -8.6750472375       -2.6585505285       -1.7986420583
 O        -8.0556160646       -2.0682198780       -0.9283309046
 C        -9.9487237676       -1.9243445058       -2.4982969618
 C        -9.4888068150       -1.3917391568       -3.9036376068
 O        -8.4085236704       -1.5781583681       -4.4162251013
 C       -10.4507046724       -0.4723807640       -4.7250471540
 C       -11.1711103933       -2.8957563768       -2.7468819386
 C       -10.2965738886       -0.6364300644       -1.6391649801
 C        -4.6613572390       -7.4360857877       -2.0188822174
 C        -6.1658011953       -7.0204998828        0.0093041248
 C        -3.7432343034       -1.9165388164        3.4017799616
 C        -6.1330214203       -1.4542356822        2.6384502602
 C        -0.7777403882       -1.5956154128       -1.5897027150
 C        -1.3705527488        0.9677080161       -1.6093345980
 C         2.7423124040       -0.6648035950       -6.7778610872
 C         0.4384176326       -1.2053806730       -8.0832546826
 C        -0.3566194817       -6.5514383948       -1.9246771103
 C         1.3051324850       -7.2118389070       -3.6859414461
 C        -6.2303970388       -4.4714439018       -6.4467067768
 C        -5.6852701376       -6.9164919118       -7.1234201171
 C        -2.7175519582       -5.1250174934      -12.2085152454
 C        -0.3280410563       -4.2114140428      -11.9027827769
 C        -1.6671934623        0.3579807194      -17.1677361832
 C        -3.5208719911        1.4217216476      -15.6631464750
 C        -5.0908397863        3.9398049278      -20.3921386518
 C        -7.1409097467        2.4537796293      -20.8916982260
 C        -3.6422384775        3.2090469075      -27.8677185662
 C        -1.8659659797        1.5296468239      -27.0310068205
 C         0.8916869591        6.9216921414      -22.9206160710
 C         0.9994055809        4.6942522323      -21.7557441621
 H        -0.6266538851        6.9048185884      -20.2219955351
 H        -2.2973180374        6.9897155162      -20.6022695654
 H        -1.2213452950        8.0267592289      -21.4608250928
 H         0.8522767876        5.4411902245      -25.9572526807
 H        -0.6653595070        6.1636658413      -25.5144965219
 H        -0.0668861219        3.2640286974      -26.0426317951
 H        -0.5478294133        4.4397936151      -27.3888357486
 H        -5.7389927683        1.1123363200      -25.9145674517
 H        -5.6625155982        2.9399075832      -25.5850868392
 H        -5.6239946576        0.8224685475      -23.4053491633
 H        -7.1207247783        1.6301546337      -23.8175953498
 H        -4.9528894656       -0.5974397151      -21.2243330397
 H        -6.0597278246        0.2674084729      -20.2058592543
 H        -3.0322718892       -0.2337431705      -19.4912186290
 H        -4.2832779109       -1.2690524351      -19.0166691762
 H        -4.1859543900       -1.8550961538      -14.2640459097
 H        -2.7492739561       -0.7279624291      -14.0637298906
 H        -1.3802504466       -2.8125231499      -14.5260400944
 H        -2.9459015919       -3.7530410675      -14.3078959213
 H        -4.3541250850       -3.1347827380      -10.6982775838
 H        -3.2474454310       -1.8039856212       -9.9416755579
 H        -4.9781135475       -2.5674659634       -8.4551409076
 H        -3.5275356357       -3.1539784869       -7.7941611254
 H        -2.7278753411       -6.7801488139       -7.3219003907
 H        -3.3649383003       -7.5288846079       -5.9031278123
 H        -1.1743301974       -5.3585533427       -5.9360890528
 H        -0.8901319523       -7.0695306961       -6.2677632313
 H         2.1555233233       -5.1333932200       -4.7708133411
 H         2.4629973826       -4.5385386061       -3.1699833164
 H         3.0645568206       -2.6686209771       -4.6154225510
 H         1.4997128548       -2.2258070264       -3.8158097115
 H        -1.4152274236       -0.1210801905       -6.5427493370
 H        -0.3657440508        1.3308347465       -6.2528897129
 H        -2.6320476909        0.9610204582       -4.9079775181
 H        -1.1797517632        1.5637414931       -4.0114255555
 H        -4.9910203661        0.4228315782       -1.8345958481
 H        -3.9698980746        0.9752840446       -0.6478902512
 H        -6.0093929819       -1.3365895067       -0.3597713942
 H        -5.8875168300        0.2307374539        0.2335613022
 H        -3.3607783146       -4.5813295202        2.9190232842
 H        -2.7367692704       -3.8051388974        1.5757041586
 H        -4.6481578761       -6.1530271037        1.6778213981
 H        -2.7931172029       -6.1654596631        1.2553326116
 H        -7.2372718130       -4.3363394741       -0.4256971195
 H        -7.9544461243       -5.8655664391       -1.2110285670
 H        -8.8311914037       -4.6286007386       -2.9079815793
 H        -7.4039338819       -3.7487980733       -3.1659366324
 H       -10.0129084718        0.5437132789       -4.6102023734
 H       -11.4784494806       -0.2755091049       -4.3184082873
 H       -10.6637300199       -0.6680696321       -5.7868220107
 H       -11.0952530531       -3.4043686452       -3.7606980628
 H       -12.0747088906       -2.3545458218       -2.7788185985
 H       -11.1547615472       -3.6386771337       -1.9583355290
 H       -10.2011071452       -0.8523097666       -0.5169651450
 H       -11.2897501605       -0.1922489812       -1.9098338718
 H        -9.5333261977        0.1033651697       -1.8818710818
 H        -5.5200726202       -7.6853471225       -2.6504553468
 H        -4.4595055839       -8.3956386441       -1.6377578755
 H        -3.8221418517       -7.0376157323       -2.7064744168
 H        -6.9561607234       -7.6549315933       -0.3799795149
 H        -6.6231967819       -6.2902840330        0.5980188302
 H        -5.6992891688       -7.6630885658        0.7372598749
 H        -3.8117729565       -2.6739435815        4.1649921685
 H        -3.7534617164       -0.8644888587        3.7855899799
 H        -2.6906594093       -2.1045009450        3.0794030729
 H        -6.0679061536       -0.4052785780        2.8024344942
 H        -6.4127705580       -1.8856107043        3.5605040279
 H        -6.9931982771       -1.5676605906        1.9475109702
 H         0.2866699550       -1.2625777581       -1.7203582453
 H        -1.0948785173       -2.4927803963       -2.1397104003
 H        -0.9187754116       -1.8565012982       -0.5595985081
 H        -0.3888279216        1.1439063233       -2.0011492597
 H        -1.2637825137        1.0426195191       -0.5076832327
 H        -2.0458080964        1.7733439783       -1.8718538263
 H         2.9010020958        0.3770035726       -6.4843188725
 H         3.1076870947       -0.9447254959       -7.7653658819
 H         3.2926058552       -1.1703663055       -5.9690524156
 H        -0.4438260988       -1.8038801819       -8.0383084369
 H         1.0883225390       -1.6540693287       -8.7981706728
 H         0.3009066332       -0.1965083276       -8.3824312509
 H         0.3963672038       -6.0966406101       -1.2519330472
 H        -0.5892562763       -7.6163836350       -1.6539704976
 H        -1.2732549271       -5.9814571918       -1.6846649382
 H         0.9147506952       -8.1612326648       -3.2661378068
 H         2.1918869739       -6.8324575967       -3.1670390791
 H         1.4932367355       -7.3919423003       -4.7667857885
 H        -7.0129310466       -4.2260772984       -7.1527733375
 H        -5.7626542380       -3.5625712854       -6.0923046213
 H        -6.7670158110       -4.8923153217       -5.6697375192
 H        -5.6730650735       -7.3136383398       -8.1138029885
 H        -6.7180968001       -6.9280756476       -6.8680023348
 H        -5.0529088852       -7.5206569774       -6.4496377435
 H        -2.1703007580       -6.0060283136      -12.4691062196
 H        -3.5438500577       -4.9642538678      -12.8967437949
 H        -3.2947063928       -5.5739301862      -11.3948961243
 H         0.1749852176       -3.8372476587      -11.0514731532
 H        -0.0299866942       -3.8480166339      -12.8914267131
 H        -0.0160638108       -5.2837978479      -11.7933167501
 H        -1.3079234352        1.3455583558      -17.0211188884
 H        -1.6830645316        0.1031250018      -18.2114639754
 H        -1.0306506196       -0.4426737747      -16.8048884106
 H        -4.1039992736        1.2731255256      -14.7122909674
 H        -3.9247486496        2.3364715093      -16.0936764753
 H        -2.6462864666        1.8780864823      -15.2032164773
 H        -5.5792967871        4.8949720165      -20.5301298952
 H        -4.0619563711        4.2224927622      -20.7930993694
 H        -4.8554621212        3.7187404400      -19.3509423034
 H        -7.6614730413        3.4190552298      -20.7036736094
 H        -7.0526388651        1.8393864349      -19.9754384194
 H        -7.6450005859        1.9066728423      -21.6911022261
 H        -4.0501047064        4.2010036399      -27.7341288420
 H        -4.4049938013        2.5372872456      -28.2913489668
 H        -2.8288289909        3.3684415031      -28.5054625406
 H        -1.1435819612        1.9107551394      -27.7236021620
 H        -2.1797615541        0.7082231486      -27.6257478198
 H        -1.2444159512        1.1787502772      -26.2311592186
 H         1.2759902080        7.1754687174      -21.9222786986
 H         0.2156939261        7.6640310896      -23.3695880924
 H         1.7447676820        6.9516129227      -23.4940720481
 H         0.5792588854        3.7596064167      -21.6352592562
 H         1.0240596292        5.1743220168      -20.8002266572
 H         2.0946011097        4.5448733556      -22.0024104765
 Na       -2.9954469424       -3.6612807493       -3.1691600787
 Na       -2.7213398197        3.1407285267      -23.0966278931
