232

 C        -1.3774087645        7.1032733352      -21.1662462148
 C        -1.2144279271        5.8360512149      -21.9864628432
 O        -2.1226119615        4.9816816633      -22.0691726242
 C         0.1752956128        5.6832294323      -22.7232033081
 C        -0.1111835297        4.7245551452      -23.9964622700
 O        -0.3154810144        3.5174259338      -23.8898854315
 C         0.0163494337        5.2387486223      -25.4737686660
 C        -0.6898413665        4.2013723441      -26.4020611676
 C        -2.2102476818        3.8146572178      -25.9665664918
 O        -2.8912210972        4.5519913224      -25.1998282189
 C        -2.9296092841        2.5647119285      -26.5623709842
 C        -3.8448765815        1.9054614761      -25.4268772762
 O        -3.2816284162        1.3512603413      -24.4964008542
 C        -5.4075116459        1.9419419125      -25.3768481261
 C        -5.8980471818        1.8565667704      -23.9090433496
 C        -5.4996645189        2.9826347532      -22.9000850295
 O        -5.0471961506        3.9801822372      -23.3717643655
 C        -5.6183191057        2.7662750006      -21.2894173545
 C        -4.7094925473        1.6434053660      -20.8530785207
 O        -3.5230805606        1.8303196015      -21.1552643260
 C        -5.0769050149        0.2207593688      -20.3781498244
 C        -4.0384373018       -0.2135682020      -19.3389728648
 C        -4.1097446310        0.6105231327      -17.9417660263
 O        -4.7728693848        1.6113822991      -17.9006616335
 C        -3.2317879748        0.2303933491      -16.6387418163
 C        -3.3657341962       -1.1828272195      -16.1143205850
 O        -3.3510901025       -2.0387063607      -16.9753287903
 C        -3.2754605094       -1.4707260673      -14.5692032260
 C        -2.5493067215       -2.7288688914      -14.1720163451
 C        -2.1778130393       -2.6972345954      -12.6285652333
 O        -2.1853050220       -1.5715374816      -12.0923155858
 C        -1.8388252667       -3.9390656111      -11.7529807204
 C        -2.1589229791       -3.6805723442      -10.2801461513
 O        -1.5235635043       -4.1567077989       -9.3807591515
 C        -3.5307822528       -2.8944554569       -9.9868938287
 C        -4.1923383625       -3.3674189711       -8.6447963562
 C        -4.5706088069       -4.8108740706       -8.4927089043
 O        -4.5244738736       -5.5148095678       -9.5133728532
 C        -4.9950506346       -5.4023341635       -7.1031881655
 C        -3.8075255072       -5.4441003328       -6.1206921046
 O        -3.7251879074       -4.6091766597       -5.2332419287
 C        -2.7612576778       -6.6958580553       -6.3622957227
 C        -1.3562702972       -6.5040867090       -5.8866368865
 C        -1.2246507713       -6.8153252293       -4.3149875669
 O        -1.9422448758       -7.6241918284       -3.7223299370
 C         0.0353540499       -6.3440199219       -3.3976978951
 C         0.3962750156       -4.9033279811       -3.5896339430
 O        -0.5045247153       -4.0798477310       -3.3862260605
 C         1.8257042227       -4.3390602889       -4.0459151259
 C         1.8212341717       -2.8530074337       -4.4450067656
 C         1.4351776374       -2.6728994677       -5.8949619367
 O         1.3741445278       -3.6076014810       -6.6750940618
 C         1.2861685846       -1.1906295543       -6.5293394570
 C         0.5233946680       -0.2687901545       -5.5716512956
 O         1.0483723979       -0.2633909904       -4.4552359728
 C        -0.8542851360        0.4842121275       -5.7468329037
 C        -1.6595671473        0.6846706495       -4.4108667970
 C        -1.8482541183       -0.6107029406       -3.6028065798
 O        -2.1521296297       -1.6436099893       -4.1835882006
 C        -1.8311677234       -0.5216035837       -2.0335687791
 C        -3.3175299982       -0.8562918641       -1.6686527189
 O        -3.6980002007       -1.9969118617       -1.8488212666
 C        -4.2692141493        0.2097437566       -1.0508322347
 C        -5.0790041474       -0.5136747153        0.0884169976
 C        -4.2878463504       -1.2452727965        1.0905670296
 O        -3.0663951731       -1.2251407608        0.8400948396
 C        -4.7278060182       -1.9487795665        2.3278492734
 C        -4.8409848224       -3.4922881071        1.8104300400
 O        -5.8986347449       -3.8354845018        1.2524913898
 C        -3.6299832789       -4.4457493188        1.9344216000
 C        -3.7561515606       -5.8033276494        1.1927837303
 C        -3.8494873399       -5.6700049081       -0.3936665515
 O        -3.0226794616       -5.1929758054       -1.0887128865
 C        -5.1161877853       -6.3635910120       -1.0984139012
 C        -5.9108697187       -5.2347067539       -1.9672082626
 O        -5.2611712994       -4.8435821763       -2.9091815912
 C        -7.3088408419       -4.7211616158       -1.5191472476
 C        -8.2092928915       -3.9100873339       -2.4446839495
 C        -8.6558587896       -2.5396075858       -1.9357839200
 O        -8.0461509035       -2.1160441759       -0.9758471289
 C        -9.8721101020       -1.8878466159       -2.5717357593
 C        -9.5261590420       -1.3577886972       -3.9568904579
 O        -8.4371895046       -1.5688804839       -4.4440850305
 C       -10.5990147097       -0.5140890776       -4.7435963629
 C       -11.1019631940       -2.8002033145       -2.6351171466
 C       -10.3803981044       -0.6626356199       -1.7200198369
 C        -4.5497461740       -7.4849460818       -2.0846042293
 C        -6.0544212145       -7.0205561933       -0.1076904119
 C        -3.7042314477       -1.8206095792        3.4174234622
 C        -6.1554772809       -1.5077271396        2.6898426257
 C        -0.7878927214       -1.4693070068       -1.4889842745
 C        -1.2820779479        0.8170369859       -1.4959845774
 C         2.5957990400       -0.4627157413       -6.6979012332
 C         0.5722642011       -1.3217322635       -7.9193962921
 C        -0.3470502632       -6.4553358455       -1.9476376496
 C         1.3543290126       -7.3631107987       -3.5975311148
 C        -6.2651744008       -4.5580594697       -6.5802584040
 C        -5.6759967760       -6.8513461235       -7.2367848577
 C        -2.8084560153       -5.0507586223      -12.2954526906
 C        -0.3404541172       -4.1332497308      -11.9290506255
 C        -1.7660860525        0.2924935363      -17.1337602732
 C        -3.3051794831        1.2215992116      -15.4744989993
 C        -5.0215181164        3.9518783106      -20.4991075316
 C        -7.1144818538        2.5398664600      -20.7152855078
 C        -3.7794077591        3.2008384471      -27.7632830119
 C        -2.0146713060        1.4611462387      -27.0699277082
 C         1.0141022884        6.9723866645      -23.0514818528
 C         0.9484128747        4.7143573741      -21.7908385099
 H        -0.8145758740        7.1582565403      -20.2308103772
 H        -2.4214721170        7.1480372353      -20.8530440329
 H        -1.2651325822        8.0313933784      -21.7877240189
 H         1.0624447458        5.2759051860      -25.9348849863
 H        -0.3862716896        6.2167650116      -25.5895674290
 H        -0.0937244512        3.3400748617      -26.3070512789
 H        -0.6708015085        4.5792389083      -27.3922744767
 H        -5.8351471990        0.9381021934      -25.8599722262
 H        -5.8419654991        2.8521973418      -25.8647834031
 H        -5.5740661049        0.8410542471      -23.5017740731
 H        -7.0225373989        1.7866605673      -23.9776856973
 H        -5.0842494322       -0.3256045522      -21.2735395477
 H        -6.0576222332        0.1261216379      -20.0040384155
 H        -2.9863365915       -0.1407510200      -19.7110836215
 H        -4.1618119846       -1.3220706183      -19.1627720249
 H        -4.2796514409       -1.5334092905      -14.1459009243
 H        -2.6505208947       -0.7202661098      -14.1212483064
 H        -1.6497644824       -2.6557349086      -14.7624769880
 H        -3.0652832076       -3.6335845430      -14.3651853121
 H        -4.2846812369       -3.1717412172      -10.8879698304
 H        -3.3934903663       -1.7938946012       -9.8750812828
 H        -5.0612065742       -2.7981518459       -8.3949193428
 H        -3.4440496416       -3.1363302806       -7.7500294986
 H        -2.7886359480       -7.1634107014       -7.3520047006
 H        -3.1819790018       -7.3887530556       -5.6650345394
 H        -0.9833005157       -5.5151653575       -6.1385738589
 H        -0.5846781480       -7.2016619456       -6.3741071724
 H         2.3659762751       -5.0602352635       -4.7730880394
 H         2.4869886558       -4.3233147461       -3.1359208778
 H         2.8239841481       -2.4297372094       -4.4089415594
 H         1.1103895144       -2.2829433053       -3.8320719793
 H        -1.4853688350       -0.0114610437       -6.5083571064
 H        -0.6599920085        1.5486481727       -6.1400735214
 H        -2.6200730102        1.0240229498       -4.6511169274
 H        -1.1938188728        1.4589591514       -3.9124283416
 H        -5.0812377376        0.6158944448       -1.7042841988
 H        -3.7802596263        1.1671032773       -0.7754081024
 H        -5.6347933769       -1.3680773031       -0.4132307937
 H        -6.0102120045        0.1108809438        0.4014395156
 H        -3.4294119761       -4.6759270726        2.9581434726
 H        -2.6307419083       -3.9551899382        1.7450841374
 H        -4.7254088695       -6.0706946495        1.5005557821
 H        -2.9449014215       -6.4787939452        1.3734277561
 H        -7.1390609954       -4.0882755040       -0.5929233402
 H        -7.8814704114       -5.5927231378       -1.2020737463
 H        -9.0657107098       -4.5339372298       -2.5621381052
 H        -7.7358056196       -3.7739926911       -3.4143643769
 H       -10.4792251995        0.5875837801       -4.6440873827
 H       -11.5900308439       -0.6340958317       -4.3914765462
 H       -10.6853886765       -0.7598455608       -5.8857896670
 H       -11.0319658551       -3.6954333092       -3.3059777104
 H       -11.8734985956       -2.2158349274       -3.0401473004
 H       -11.2888742812       -3.0904485708       -1.5721308771
 H       -10.0338767085       -0.8512359166       -0.7170075462
 H       -11.4058149534       -0.4303333673       -1.7797875262
 H        -9.8040844940        0.2173572835       -2.0651593313
 H        -5.4298896929       -8.0129781351       -2.5552574144
 H        -4.2316352510       -8.3722081932       -1.5202633958
 H        -3.8353525221       -7.1708675955       -2.8306383280
 H        -6.8481684702       -7.6014250871       -0.6327433045
 H        -6.5847773097       -6.3765270709        0.5319271422
 H        -5.6220633668       -7.7924373989        0.6053824096
 H        -3.7048854809       -2.7218986770        4.1527380296
 H        -3.9093173435       -0.8762049401        3.9243178378
 H        -2.6668730659       -1.8447491144        3.1180915135
 H        -6.2535990872       -0.4391940087        2.8650259632
 H        -6.5637393572       -2.0458684145        3.5328251601
 H        -6.8007992056       -1.6821277763        1.8585850442
 H         0.2182219131       -1.0589067583       -1.5783630326
 H        -1.0008165165       -2.4674374731       -1.9002876291
 H        -1.0346083131       -1.6193088525       -0.3668540114
 H        -0.2467862251        0.9558847371       -1.9487661270
 H        -1.0499580543        0.7175705598       -0.4364290389
 H        -1.9151730782        1.7387950995       -1.5541383877
 H         2.6112079875        0.4950692393       -6.2967852361
 H         2.8709306098       -0.5084717130       -7.7532838214
 H         3.3309372437       -0.9791958222       -6.0343287720
 H        -0.2815120409       -1.9640900225       -7.9757434191
 H         1.2782416486       -1.6143177184       -8.6439873846
 H         0.4028813464       -0.2895497224       -8.1210438769
 H         0.2744073092       -5.6983151214       -1.3833662798
 H        -0.3093423082       -7.4304618929       -1.5201240115
 H        -1.3974621124       -6.0695713784       -1.7357141439
 H         1.1509147477       -8.3786869611       -3.1904130731
 H         2.1752915817       -6.8119529372       -3.2013344769
 H         1.5099642114       -7.4663878118       -4.7339593054
 H        -7.0142744825       -4.5886109831       -7.3691549069
 H        -6.1334397551       -3.5278861606       -6.2665120615
 H        -6.7485914640       -5.0084537717       -5.7738070069
 H        -5.3954719102       -7.3882499503       -8.0849626315
 H        -6.7475099528       -6.7306533439       -7.2970887162
 H        -5.4024388105       -7.3863915295       -6.3714861370
 H        -2.4132081392       -5.7620333695      -12.9686159812
 H        -3.7432608148       -4.7958911642      -12.5532165000
 H        -2.9612986425       -5.7525686580      -11.4189102866
 H         0.0941718926       -4.0675067380      -10.9790109516
 H         0.0203082400       -3.5035609926      -12.7778205061
 H        -0.0620766852       -5.1604596087      -12.1825541594
 H        -1.4712452844        1.3930374728      -17.3479381348
 H        -1.6761024077       -0.3052530592      -17.9927423102
 H        -1.1639404230       -0.2615329093      -16.4391800626
 H        -4.1438311845        1.0132396090      -14.7748926435
 H        -3.5152035004        2.2836008809      -15.7567592663
 H        -2.5057872130        1.3710546113      -14.7750184133
 H        -5.6341475084        4.8486330230      -20.6100506296
 H        -4.0412155119        4.3046088891      -20.8422109152
 H        -4.8144266030        3.7502106109      -19.5322016109
 H        -7.5497932621        3.4930490295      -20.5955232420
 H        -7.0483016980        1.9479494362      -19.7408468756
 H        -7.6586929804        1.9437709649      -21.5042323535
 H        -4.2700000893        4.1658451356      -27.4820245384
 H        -4.5858228203        2.5195123666      -28.1041062382
 H        -3.0044043813        3.5794138342      -28.5056557690
 H        -1.5614984696        1.5283614324      -28.0897192785
 H        -2.5531490192        0.5228589062      -27.2587256035
 H        -1.2582732775        1.1728123568      -26.4096631826
 H         1.5754606560        7.3346115733      -22.2160944492
 H         0.4899903424        7.7059155196      -23.6329919509
 H         1.8169264512        6.6535576842      -23.7051999710
 H         0.3781966006        3.8667450871      -21.4874071476
 H         1.2579228382        5.2886012746      -20.9566488003
 H         1.8478767693        4.2981233237      -22.1951257534
 Na       -3.0916985968       -3.7307394671       -3.2229848592
 Na       -2.7262263706        3.1314266846      -22.9392301903
