232

 C        -1.3333354738        7.3583636738      -21.5155007451
 C        -1.2217203760        5.9688965954      -22.0825945365
 O        -2.1162042093        5.1979708321      -21.9732318609
 C         0.1507434804        5.5608133205      -22.8155212889
 C        -0.2351133183        4.4568863798      -24.0030690086
 O        -0.4351757557        3.2928654212      -23.7218288381
 C        -0.2232913899        5.0434210482      -25.3929830965
 C        -0.9891162864        4.2400855231      -26.5138048773
 C        -2.3232469079        3.8573398546      -25.9062306835
 O        -2.6959825866        4.3917197403      -24.9238780504
 C        -3.1613055823        2.5586158701      -26.4588621106
 C        -3.9316140533        1.8661945924      -25.3074554234
 O        -3.2781474926        1.2899071545      -24.4322866945
 C        -5.4099792448        2.1827679787      -25.2587958084
 C        -6.0881707571        1.8412741690      -23.8263996277
 C        -5.6614405843        2.9806080662      -22.9122563818
 O        -5.3460321212        4.0702428225      -23.4000570082
 C        -5.6384350446        2.7808309605      -21.3721069737
 C        -4.5705165760        1.5962141117      -20.9136178919
 O        -3.4163833469        1.5947870518      -21.2860062052
 C        -5.0413251792        0.4379499678      -20.0626745293
 C        -4.0133327628       -0.0909087641      -19.1324288052
 C        -3.9948102549        0.7712346947      -17.8916470104
 O        -4.7366338659        1.7179875932      -17.7170512313
 C        -3.0664089042        0.3292370457      -16.6752225264
 C        -3.3746463362       -1.2685396985      -16.1102778712
 O        -3.6285668979       -2.1042542111      -16.9680868273
 C        -3.4274326044       -1.4484414406      -14.6015762120
 C        -2.7387325267       -2.8075957560      -14.1333014587
 C        -2.3107974826       -2.5732370992      -12.7062266126
 O        -2.0888924328       -1.4787740558      -12.2545228398
 C        -1.9275136706       -3.9829029108      -11.8961192549
 C        -2.2217557162       -3.6494146262      -10.3299414291
 O        -1.3741454995       -4.0560502624       -9.5327596273
 C        -3.5436008542       -2.9798692230      -10.0041358830
 C        -3.9964342336       -3.3771476767       -8.6116682823
 C        -4.3945130110       -4.8642025212       -8.5748728632
 O        -4.3763692062       -5.5361050696       -9.5336741255
 C        -4.8604001541       -5.5252984493       -7.1630433673
 C        -3.6344544617       -5.5757916033       -6.2108983111
 O        -3.7497475631       -4.7152542247       -5.3080266997
 C        -2.5750439369       -6.6188610163       -6.4449427668
 C        -1.2536661705       -6.2710972475       -5.7885347995
 C        -1.2380351108       -6.8841800710       -4.3180141583
 O        -1.7765160612       -7.8882140648       -3.9436004509
 C         0.1043714829       -6.4550013896       -3.4864686257
 C         0.3336271659       -4.9070148033       -3.6373533793
 O        -0.6237800735       -4.1820182596       -3.4360215444
 C         1.7017492693       -4.3336217513       -4.0083917422
 C         1.6292865469       -2.8404547403       -4.2810062104
 C         1.3757967221       -2.5309647243       -5.7861439684
 O         1.0723301304       -3.4880475568       -6.4250090802
 C         1.2362169698       -1.1421373431       -6.3574017942
 C         0.4457782691       -0.2157117677       -5.3312026944
 O         0.8355631684        0.0001633304       -4.2053423114
 C        -0.9118676704        0.3331635723       -5.7436796067
 C        -1.6068250729        0.7578114216       -4.4439220773
 C        -1.8183355260       -0.4935657779       -3.5438008303
 O        -2.0706861551       -1.5387211502       -4.1122295673
 C        -1.8181445778       -0.4800847499       -2.0038548829
 C        -3.2986466795       -0.8486640455       -1.5986500186
 O        -3.7817830852       -1.9376306109       -1.9012694880
 C        -4.0707361057        0.1880830173       -0.8000239492
 C        -4.9555551703       -0.4493672466        0.2398396981
 C        -4.1699280819       -1.2345656195        1.1869199858
 O        -2.9907710391       -1.2498648525        0.9909471447
 C        -4.8047580693       -2.1046506385        2.3243953330
 C        -4.7999289609       -3.6294225262        1.8451805513
 O        -5.7901865103       -3.9467275172        1.2409030334
 C        -3.4545947507       -4.3639048005        1.8548507434
 C        -3.6952502912       -5.7825950727        1.2259253195
 C        -3.9455824620       -5.7087250643       -0.3241704826
 O        -3.0608289681       -5.1428466119       -1.0107236443
 C        -5.1529536252       -6.4000748095       -1.1518969938
 C        -5.7863847769       -5.1574594738       -2.0081101805
 O        -5.2125115470       -4.6533372694       -2.9455884491
 C        -7.0760824894       -4.4674413035       -1.4173163742
 C        -7.9348143862       -3.7458074865       -2.6058267755
 C        -8.6007553589       -2.5649725015       -2.0066086795
 O        -8.0305117082       -2.0243185311       -1.0716515655
 C        -9.8685380293       -1.8620630931       -2.5458181211
 C        -9.6593958168       -1.4014525194       -4.1119555973
 O        -8.5681665196       -1.5303482274       -4.6136367460
 C       -10.7369127238       -0.6659679170       -4.8251005891
 C       -11.0977405294       -2.8579777548       -2.5042829916
 C       -10.1734172126       -0.5944737713       -1.7593543122
 C        -4.4675451829       -7.3246319228       -2.1390990656
 C        -6.1965426245       -7.1387230567       -0.2555741383
 C        -3.9050838936       -1.8450718905        3.5594119999
 C        -6.1807427552       -1.7076494583        2.8055618289
 C        -0.9658963493       -1.7456027931       -1.4275361985
 C        -1.3476848778        0.8623471275       -1.4954158257
 C         2.5764564444       -0.4148462022       -6.5310497360
 C         0.5149883430       -1.2821617821       -7.7261824036
 C        -0.2149416611       -6.6242280325       -1.8968121740
 C         1.3781688271       -7.3600833991       -3.7481206005
 C        -5.9267494246       -4.5588848845       -6.5840191916
 C        -5.4152923151       -6.9335372058       -7.6340439581
 C        -2.6932473163       -5.2770675947      -12.3434608474
 C        -0.4729182458       -4.2918567198      -12.1241937546
 C        -1.4910149682        0.3770857089      -17.1917263696
 C        -3.3096845431        1.4744719979      -15.7411198969
 C        -5.1715280690        4.1607060678      -20.8748551015
 C        -7.0618790155        2.5684783011      -20.9277461363
 C        -4.0991007082        3.1156758595      -27.6225227762
 C        -2.2515253107        1.4907204447      -27.1217071638
 C         0.9082678129        6.7780341129      -23.3512874199
 C         0.9907802839        4.7899461335      -21.6636905097
 H        -0.6123383257        7.3884541561      -20.6602949864
 H        -2.3380644429        7.5927460823      -21.1109421750
 H        -1.0412709564        8.0843954529      -22.2460524590
 H         0.8335556918        5.1350959357      -25.5867696202
 H        -0.6285322155        6.1027839183      -25.3866539136
 H        -0.4220266953        3.2673729267      -26.8051733869
 H        -1.1219760101        4.8187170973      -27.4589041143
 H        -5.8413801080        1.5996722691      -26.0046741105
 H        -5.5232229267        3.2107910116      -25.4420385090
 H        -5.6183326009        0.9652637896      -23.3941386467
 H        -7.1365510009        1.6037218275      -23.9873243540
 H        -5.4802738442       -0.3122284792      -20.8115467230
 H        -5.9508629061        0.7266298254      -19.4962918872
 H        -3.0080286198       -0.1481901818      -19.5320864734
 H        -4.2001025016       -1.0915828807      -18.7706271961
 H        -4.4616385271       -1.5032326290      -14.2641280273
 H        -2.8530665045       -0.6436593470      -14.0897612211
 H        -1.8370444399       -2.9203721064      -14.7222699141
 H        -3.4038245777       -3.6933085025      -14.1912150232
 H        -4.1124345011       -3.1770340654      -10.8417605345
 H        -3.4028615403       -1.9056701524       -9.9212640692
 H        -4.9267630240       -2.8308879209       -8.2068841534
 H        -3.2109119334       -3.0900543561       -8.0139424734
 H        -2.4308702474       -6.6762057501       -7.5330274760
 H        -2.9477588762       -7.6288141797       -6.0685634156
 H        -0.9422864518       -5.2118842161       -5.8911282810
 H        -0.4164953932       -6.7768347552       -6.1693462522
 H         2.1289556229       -4.7474397455       -4.8900112835
 H         2.4356832839       -4.5220633024       -3.2180054208
 H         2.5768526978       -2.3868792020       -3.9328567847
 H         0.7080269725       -2.4024146934       -3.8864051040
 H        -1.4698643593       -0.5267795322       -6.0801715365
 H        -0.9939020974        1.0453635512       -6.5067602684
 H        -2.6006433803        1.2395407279       -4.6629617210
 H        -0.9887738791        1.6096706565       -3.9958233438
 H        -4.7085127806        0.5916355004       -1.5879636463
 H        -3.5759852643        1.1082904221       -0.4916078877
 H        -5.6317608221       -1.1182400691       -0.2733080336
 H        -5.6027847056        0.1431004728        0.8108189132
 H        -2.9406639469       -4.4295668356        2.8195685253
 H        -2.7074998775       -3.8414405947        1.3484391635
 H        -4.6063758739       -6.1583941723        1.7331871858
 H        -2.8161778567       -6.4653923420        1.2735536473
 H        -6.8789516540       -3.7258102414       -0.7172200961
 H        -7.7125837881       -5.2257419725       -0.9743995359
 H        -8.7049279033       -4.5023198965       -2.9993204050
 H        -7.2947087093       -3.3390708873       -3.4466276208
 H       -10.8017708677        0.3575515365       -4.5193433518
 H       -11.8180738044       -0.9821959066       -4.7835535243
 H       -10.3819770813       -0.5777670713       -5.8002550848
 H       -10.6450665260       -3.8336818800       -2.6543364071
 H       -11.8147634263       -2.7654598867       -3.3457739589
 H       -11.5347866941       -2.8328366367       -1.5368416234
 H       -10.0801753060       -0.7858573525       -0.6769023922
 H       -11.1850673216       -0.2288898808       -1.9938900089
 H        -9.5346103825        0.2010392476       -1.9773490529
 H        -5.0707295101       -8.0897487892       -2.5123197509
 H        -3.7119755302       -7.9208497830       -1.6814605442
 H        -4.0166302166       -6.6680546771       -2.9154569744
 H        -7.1825276995       -7.3355914848       -0.7158676863
 H        -6.4585819452       -6.5418270780        0.6541199931
 H        -5.8501625107       -8.0604708045        0.1700470401
 H        -4.1478453573       -2.5558051253        4.2639399877
 H        -4.0434979085       -0.8770054574        4.0322650389
 H        -2.8467347155       -2.0461441072        3.3661242111
 H        -6.2354700225       -0.6743849569        3.1520954324
 H        -6.2853042053       -2.3536177405        3.6826317710
 H        -7.0840456174       -1.8320225199        2.1482373511
 H         0.0292430968       -1.6620528160       -1.8915883191
 H        -1.4891208484       -2.6796084148       -1.5615466790
 H        -0.8819328619       -1.6772886270       -0.3993103437
 H        -0.3076796832        1.0543483413       -1.5723358119
 H        -1.5477709487        0.9804884596       -0.3972427683
 H        -1.9615722171        1.6185190585       -1.9866274452
 H         2.3158672853        0.6878728459       -6.5238622194
 H         2.9817724434       -0.6371166488       -7.5043465448
 H         3.2782689706       -0.5609491546       -5.7515368367
 H        -0.4971017059       -1.7020436070       -7.5319291792
 H         1.1074485710       -2.0305207497       -8.3117722500
 H         0.4935807556       -0.3237970978       -8.2811514191
 H         0.4640376749       -6.1665456656       -1.2315207131
 H        -0.4466981691       -7.6716998123       -1.6315705019
 H        -1.0893216280       -6.0599668018       -1.6984625081
 H         1.0115580040       -8.3594264297       -3.7500322592
 H         2.0944278075       -7.0706611606       -2.9672612852
 H         1.8145041895       -7.1797518913       -4.6785008610
 H        -6.8525880158       -4.4099345764       -7.1942905108
 H        -5.5198129243       -3.5348385196       -6.4035942465
 H        -6.2436545210       -4.8429047340       -5.5485523766
 H        -4.6132237653       -7.6996098932       -7.5000044360
 H        -5.7229897597       -6.8938847754       -8.6690019760
 H        -6.2910432159       -7.2800583737       -7.0149510606
 H        -3.1691911575       -5.1857918912      -13.3566113844
 H        -3.6512516821       -5.5310585644      -11.7790876685
 H        -2.1181567389       -6.1948819956      -12.4494954820
 H        -0.1724975150       -4.9012753054      -11.2488064023
 H         0.0771693805       -3.3860631890      -12.2300236537
 H        -0.2240584427       -4.8367478028      -13.0472772141
 H        -1.4862662597        0.8625703166      -18.1223347368
 H        -1.0286383764       -0.6561249167      -17.3255370682
 H        -0.8645960771        0.8274659939      -16.3885510576
 H        -4.3176018362        1.5119792748      -15.3890184210
 H        -3.2301977037        2.4481295961      -16.1216308014
 H        -2.7361378070        1.5146151067      -14.8273052535
 H        -5.7689036881        4.9726942758      -21.2525565415
 H        -4.0739485650        4.2453249009      -21.0722937569
 H        -5.1006073677        4.3076589033      -19.7608894460
 H        -7.7064369107        3.2085242592      -21.5774339222
 H        -7.1688636702        2.9100331421      -19.9343609614
 H        -7.2647322622        1.5556790854      -21.0588558197
 H        -4.8533700283        3.8289435458      -27.2649880940
 H        -4.6934233099        2.2428128080      -27.9030494472
 H        -3.5925711696        3.6464533414      -28.3716921740
 H        -1.8292925481        1.6785001743      -28.1051637827
 H        -2.6461364255        0.4862716048      -27.3161054879
 H        -1.4376473154        1.1381215818      -26.3797586156
 H         1.1027200559        7.5237046908      -22.5492274944
 H         0.3694994773        7.2527693487      -24.1945755975
 H         1.8962778983        6.5117408738      -23.7277225771
 H         0.5526152015        3.8550808459      -21.3263474360
 H         1.4146731604        5.4568775347      -20.8612233761
 H         1.8728124794        4.3335432391      -22.2327916786
 Na       -2.8587613115       -3.9594728924       -3.1302952833
 Na       -2.5755587325        3.0250996881      -22.9013570465
