232

 C        -1.2358993179        7.5054302819      -21.9020530029
 C        -1.2405206427        6.0264325764      -22.3384258856
 O        -2.1137110877        5.3170981231      -21.8507967273
 C         0.1334824146        5.4677205050      -22.8852156162
 C        -0.2152608586        4.4556396012      -23.9525114370
 O        -0.4033388229        3.2705203136      -23.7196871686
 C        -0.3180156675        5.0100379049      -25.4831491416
 C        -1.0818898884        4.0694334756      -26.3296672861
 C        -2.4787479200        3.6502836755      -25.7721498362
 O        -2.9314527177        4.2324062478      -24.7767279662
 C        -3.2887161330        2.5484011089      -26.5265392512
 C        -4.0806453151        1.9143033072      -25.3556933085
 O        -3.4819455304        1.4402691916      -24.4417024069
 C        -5.6746453540        1.8655079491      -25.3083693865
 C        -5.9712328896        1.7861678462      -23.8186905328
 C        -5.6931456683        3.0547938606      -22.9557814112
 O        -5.4350508825        4.1260808496      -23.4141099336
 C        -5.6328443943        2.8037303046      -21.2915270338
 C        -4.6840517645        1.6764634134      -20.9643846360
 O        -3.5436828242        1.6752037888      -21.4077049598
 C        -5.1527200514        0.5479316769      -20.0060881180
 C        -4.0320687380       -0.0905925163      -19.1298965212
 C        -4.0346185446        0.8369285288      -17.7866238462
 O        -4.8071211625        1.7829593774      -17.7559269535
 C        -2.9030673098        0.4594985873      -16.6160049848
 C        -3.4152969461       -0.9466682530      -16.1230386491
 O        -3.6822397350       -1.7657899287      -16.9617016547
 C        -3.4976758227       -1.2119726306      -14.5528304583
 C        -3.0502931604       -2.6431760311      -14.2927146481
 C        -2.3159389029       -2.7899589597      -12.8862241486
 O        -2.1026490990       -1.7338173470      -12.2883866578
 C        -1.9571037268       -4.0052578568      -12.0817277068
 C        -2.0832287313       -3.6562680818      -10.5416588230
 O        -1.2789224587       -3.9576513734       -9.7016437213
 C        -3.4472864426       -2.8950547048      -10.0571294626
 C        -3.8597410617       -3.4291283445       -8.5942281056
 C        -4.3030414007       -4.9226310550       -8.5900804271
 O        -4.0929794491       -5.5217851802       -9.6711417504
 C        -4.7988439136       -5.6163729092       -7.2229380334
 C        -3.4875282998       -5.5898586341       -6.2979450760
 O        -3.4583130943       -4.8160274480       -5.4135101117
 C        -2.2349316241       -6.5925548564       -6.5973833872
 C        -1.1342902008       -6.1399763072       -5.6537959805
 C        -1.0392079955       -6.9782008575       -4.3467640166
 O        -1.7434743996       -7.9414053856       -4.1291761572
 C         0.1599592588       -6.5785749009       -3.4595955296
 C         0.3050111970       -4.8933079425       -3.5388283890
 O        -0.6104439068       -4.1024345167       -3.5813661484
 C         1.7128139290       -4.3506625976       -3.8031183355
 C         1.7844083022       -2.7927451517       -4.2763852659
 C         1.2056194485       -2.5645934273       -5.7037694871
 O         0.8485734349       -3.5099688439       -6.3819956220
 C         1.0920611268       -1.1136947446       -6.2615643084
 C         0.3769893189       -0.1700465767       -5.1649217820
 O         0.8665796771        0.0732361672       -4.0796730740
 C        -0.9899686997        0.2859213459       -5.5458478014
 C        -1.9121991700        0.6020627185       -4.3212728175
 C        -2.0360733915       -0.6697382366       -3.5129583497
 O        -2.0842665467       -1.7905006533       -4.0127691223
 C        -1.9297116118       -0.4861317163       -1.9370275603
 C        -3.3432925537       -0.8303985697       -1.4905385874
 O        -3.9242384561       -1.8497974416       -1.8554940487
 C        -4.2977709203        0.1501613693       -0.7380324571
 C        -4.9791547526       -0.5040057924        0.4116522403
 C        -4.1072839975       -1.2901508119        1.4055175990
 O        -2.9217736112       -1.3322631511        1.1828962577
 C        -4.7865799681       -2.2320286333        2.4498964684
 C        -4.7606521847       -3.6501801064        1.8571950727
 O        -5.7769526015       -4.0618022841        1.2964516646
 C        -3.4335215731       -4.4478251727        1.8263944376
 C        -3.7504895428       -5.7419384242        1.0960998385
 C        -3.8847261594       -5.5309214768       -0.4046495821
 O        -3.0176984045       -4.8186064780       -0.8624817520
 C        -5.1211812449       -6.2035811772       -1.1916258152
 C        -5.7671426227       -5.0309427224       -1.9762190442
 O        -5.1447878191       -4.5770183558       -2.9655557290
 C        -7.0351262375       -4.4496897474       -1.5350959734
 C        -7.6657345038       -3.5053275728       -2.5079420573
 C        -8.5172654596       -2.3364178204       -1.9961652619
 O        -8.0217709894       -1.7632063347       -1.0512088340
 C        -9.8000681383       -1.8448167845       -2.5869012822
 C        -9.6300072693       -1.5402089846       -4.1524887869
 O        -8.6110218610       -1.6879774714       -4.7995990752
 C       -10.8133400371       -0.9147219512       -4.8034189911
 C       -10.8862831693       -2.9113529243       -2.4383786709
 C       -10.2058652525       -0.5114362487       -1.8367684446
 C        -4.4849496134       -7.1444821659       -2.2637928211
 C        -6.1085765515       -7.0190490988       -0.2836684624
 C        -3.9468764104       -2.2386695276        3.7122208685
 C        -6.2316787892       -1.7906309727        2.6160095423
 C        -0.9152848376       -1.6047135091       -1.4653825285
 C        -1.2886663115        0.8526800746       -1.3663664581
 C         2.6297623934       -0.6871508137       -6.3111221792
 C         0.5336029467       -0.9924767097       -7.7145201218
 C        -0.2331371545       -6.9613652301       -2.0099486079
 C         1.5053528528       -7.2420043897       -4.0461954174
 C        -5.9506318473       -4.7492516810       -6.6225333633
 C        -5.2889866519       -7.0093012303       -7.5288132878
 C        -2.8621564747       -5.3269581087      -12.4019174999
 C        -0.2903252319       -4.1689057392      -12.3337618067
 C        -1.4966877272        0.2641084128      -17.2227045604
 C        -2.9292369464        1.4449339950      -15.4419864015
 C        -5.1599305784        4.0578604272      -20.5759457423
 C        -7.1236540706        2.4410816714      -21.0321062953
 C        -4.1880270304        3.1506331738      -27.5553800679
 C        -2.3337033187        1.4972360456      -27.1571932360
 C         1.0240120834        6.6184453710      -23.5478593687
 C         0.9276676178        4.7998480997      -21.7419646554
 H        -0.2806306753        7.7170700075      -21.4429799928
 H        -2.0098924674        7.6352122027      -21.1852932224
 H        -1.3373417066        8.1881512544      -22.7672043688
 H         0.7028259250        5.1868081088      -25.8979324667
 H        -0.8211542684        5.9382228840      -25.5327898558
 H        -0.4996179812        3.2132126334      -26.4159725544
 H        -1.1759438039        4.4243970161      -27.3784256825
 H        -6.1556646103        0.9496495613      -25.7762046857
 H        -6.1391916288        2.8814569536      -25.6438528063
 H        -5.4234084065        0.9121628924      -23.4596165001
 H        -7.0291936493        1.5526093003      -23.7760496267
 H        -5.6936656736       -0.2170621196      -20.5328569308
 H        -5.9526462612        0.9692862545      -19.3670145902
 H        -3.0604199713       -0.1534567670      -19.6217861847
 H        -4.3084734338       -1.1085519687      -18.7912432265
 H        -4.4880129889       -1.1931686026      -14.0473763371
 H        -2.8339549631       -0.5424471859      -14.0211960587
 H        -2.2974522850       -2.8470895422      -15.1053984160
 H        -3.9361642975       -3.2737546078      -14.4121355689
 H        -4.4451717080       -3.0421576120      -10.7005979774
 H        -3.3723158097       -1.7694483826      -10.0475067579
 H        -4.4480263920       -2.8099781623       -8.0227790201
 H        -2.8626019069       -3.5774751288       -8.0068956168
 H        -1.8361169356       -6.6798853566       -7.6057479795
 H        -2.4741016846       -7.5560863398       -6.2084580098
 H        -1.3012710396       -5.0921707222       -5.3613368877
 H        -0.0712938208       -6.1193505159       -6.1133687555
 H         2.2688428322       -4.9508770170       -4.5639204362
 H         2.2132388805       -4.4202395520       -2.8342670900
 H         2.7976875371       -2.4434229172       -4.2682764494
 H         1.0631614583       -2.2538355352       -3.6273571822
 H        -1.5696007031       -0.4051673071       -6.2173747570
 H        -0.8161279278        1.2022896672       -6.1982548412
 H        -2.9036192104        0.9143648177       -4.6922206536
 H        -1.5930089862        1.4527691559       -3.7550552646
 H        -5.0471080355        0.5364925243       -1.4518531128
 H        -3.8397560940        1.0787313227       -0.4773097969
 H        -5.5699450757       -1.2924520025       -0.0762535045
 H        -5.7138457992        0.0820271964        1.0303043687
 H        -2.6976635151       -4.6143497488        2.6343428312
 H        -2.7205465731       -3.7975443824        1.1498384497
 H        -4.7109276252       -6.0482173534        1.5435714009
 H        -2.9781912014       -6.5288285339        1.2454417079
 H        -6.8561474961       -3.8816441028       -0.5247134830
 H        -7.7241878153       -5.3017395828       -1.3634190187
 H        -8.1406508208       -4.1072905766       -3.1901475028
 H        -6.8577602908       -3.0428858230       -2.9992024776
 H       -11.2608761074       -0.0242498733       -4.2962511444
 H       -11.6519351393       -1.5781176347       -4.7343399714
 H       -10.5949104958       -0.4592597171       -5.8048494433
 H       -10.7489497774       -3.7761503551       -3.0532150016
 H       -11.8177803369       -2.3992817554       -2.7232615081
 H       -10.9333956681       -3.1640737472       -1.3689841984
 H       -10.5342328139       -0.7801369809       -0.8263333503
 H       -11.0576859729        0.0495954917       -2.2829132797
 H        -9.3528463073        0.2642262726       -1.6986749282
 H        -5.2678496240       -7.5230702916       -2.9946053761
 H        -3.9622319576       -8.0330936781       -1.7996594973
 H        -3.7678125647       -6.5640688834       -2.7667999547
 H        -6.9047649286       -7.5003725452       -0.7395051670
 H        -6.6761101667       -6.4535993331        0.4616213789
 H        -5.5794574747       -7.7054237789        0.3398894340
 H        -4.4989173498       -2.7641997601        4.5665894481
 H        -3.8920853180       -1.2393561709        4.1189498572
 H        -2.9425770944       -2.6360512252        3.6145895969
 H        -6.3882342135       -0.7259216604        2.8093227048
 H        -6.7351776389       -2.3925946997        3.3751330944
 H        -6.7270110024       -1.9758987171        1.7075910734
 H        -0.0167713503       -1.4310674805       -2.0004895318
 H        -1.3095770440       -2.6083998480       -1.5336495880
 H        -0.8117612620       -1.4414260543       -0.3570193314
 H        -0.3923507528        1.0677580984       -1.9836498640
 H        -0.9079819869        0.7261260978       -0.4093547824
 H        -1.8755396231        1.7486043288       -1.4093800458
 H         2.9443400996       -0.1517690108       -7.1961978324
 H         3.2719508230       -1.6144983458       -6.2771244887
 H         2.8457128291       -0.1278546990       -5.3558823585
 H        -0.4764591548       -1.3970249029       -7.7248364746
 H         1.1829626862       -1.5013943416       -8.3995959952
 H         0.4894892974        0.0719542747       -7.9564700382
 H         0.6969424676       -7.1976627259       -1.4059883562
 H        -0.7548583051       -7.9000304779       -2.1122588287
 H        -0.7173435617       -6.2462078097       -1.3186234197
 H         1.3079859825       -8.2947235876       -3.9760109021
 H         2.3289096669       -6.8356834813       -3.4873023249
 H         1.5993024435       -6.9740289121       -5.1303197786
 H        -6.7066520033       -4.5263306656       -7.3286463862
 H        -5.6638722992       -3.7939037941       -6.2717760855
 H        -6.3706722332       -5.2475234720       -5.7464161491
 H        -4.8599285286       -7.7524273224       -6.8495806196
 H        -5.0904763078       -7.2192315284       -8.6226873792
 H        -6.3645063378       -7.0620511746       -7.4575592489
 H        -3.5840198850       -5.2650212621      -13.2003154063
 H        -3.5714083687       -5.5758135755      -11.6292114964
 H        -2.2546903524       -6.1895053728      -12.5621140878
 H        -0.0118756826       -5.2282531424      -12.4469039706
 H         0.3264574582       -3.6548082558      -11.5296200413
 H        -0.0334620975       -3.5637349902      -13.1958474372
 H        -1.4124024078        0.6765596615      -18.2512028071
 H        -1.2085468281       -0.7462585125      -17.3474593581
 H        -0.8919071090        0.7258076530      -16.5021241912
 H        -3.8274062768        1.7181851182      -14.9115450512
 H        -2.7021377700        2.5014519402      -15.7234691911
 H        -2.2451958483        1.1299603318      -14.6422333975
 H        -5.8843614328        4.8528335638      -20.8720545648
 H        -4.1476388320        4.3228769153      -20.5499786922
 H        -5.3956254931        4.0335967994      -19.4993405053
 H        -7.7042517470        3.2512201713      -21.3845911271
 H        -7.2868005263        2.4035077746      -19.9465298530
 H        -7.3082564676        1.4998229533      -21.6026255955
 H        -4.6039925111        3.9837397233      -27.0611206643
 H        -4.9491022022        2.5316920995      -27.8967641606
 H        -3.6142880744        3.5705410583      -28.4043392228
 H        -1.7149390818        1.9154570895      -27.9176715153
 H        -2.8813969000        0.7228901274      -27.6690919871
 H        -1.8466024026        0.8851792376      -26.4678985164
 H         1.5770892859        7.1896726303      -22.8153247665
 H         0.4257443288        7.3483607541      -24.0877739224
 H         1.7289597392        6.1218579976      -24.2801528279
 H         0.4204633539        3.8170762984      -21.5648414647
 H         0.8644292982        5.4350051714      -20.8753430046
 H         1.9137258195        4.5264087379      -21.9320691883
 Na       -2.9234083585       -3.8600142926       -3.0189029442
 Na       -2.5170663487        3.0226238983      -22.8431228995
