232

 C       -20.6231140711       -7.7221558275       -4.3522175490
 C       -20.6186556944       -6.3090416908       -3.7527712638
 O       -20.1406809603       -6.2035673884       -2.6010504592
 C       -21.3014778249       -5.0963809834       -4.4360324722
 C       -20.1659275615       -4.2692645246       -4.9402081472
 O       -19.6183013390       -3.4300482095       -4.2382414416
 C       -19.4876759371       -4.5058445920       -6.3792380229
 C       -18.0672285290       -3.9196250817       -6.4957843509
 C       -17.3403706997       -3.8558099531       -5.0519726841
 O       -17.3249993782       -4.7813765686       -4.2726775722
 C       -16.7168487078       -2.4746500099       -4.7038940751
 C       -16.4654732047       -2.3798717623       -3.0857330670
 O       -17.3403381999       -1.8966415152       -2.3681141732
 C       -15.1261897448       -2.9262002661       -2.6325532741
 C       -14.8984119071       -3.2889079172       -1.0983928253
 C       -15.4110545535       -4.6509111682       -0.6858028625
 O       -16.5485522604       -5.0470957653       -0.9159009053
 C       -14.6106782008       -5.6183231387        0.2680470026
 C       -13.2620363369       -5.9613119118       -0.6642301853
 O       -12.5112065163       -5.0705132119       -0.8835037708
 C       -13.0265384880       -7.4262287912       -1.0698043608
 C       -11.5855589242       -7.5825947860       -1.6116302043
 C       -11.5589225028       -8.3881188148       -2.8507393816
 O       -12.3790043353       -8.3472049753       -3.7600274077
 C       -10.4388810311       -9.5572612694       -2.7925601279
 C        -9.0267058072       -8.7837364805       -2.7362952469
 O        -8.2919328112       -8.9273957672       -1.7742648365
 C        -8.6070924436       -7.8751550812       -3.9183082105
 C        -7.3106564781       -7.1422304920       -3.4883440902
 C        -7.4744804011       -5.6735402807       -3.7850609509
 O        -8.6396561248       -5.2210920277       -3.7394731170
 C        -6.2975651542       -4.7856459241       -4.1795765508
 C        -5.6359300441       -5.3770610317       -5.5351917063
 O        -5.4190578564       -6.5521997766       -5.5993177465
 C        -5.4168401386       -4.4811695319       -6.7101469199
 C        -4.1881129542       -5.0830968345       -7.5118232887
 C        -3.4644037159       -4.0980514655       -8.4528245428
 O        -4.0632837465       -3.6235649775       -9.4711774499
 C        -1.8798262249       -3.8329974684       -8.3280923684
 C        -1.3027129129       -5.1700856289       -9.3772541760
 O        -0.4717269993       -5.8827642705       -8.9220022777
 C        -1.8710903660       -5.1637554403      -10.8119453977
 C        -0.8908047130       -5.8194052246      -11.8378909151
 C         0.2736632339       -4.8754161688      -12.0169526718
 O         0.0847607464       -3.6824633167      -11.8536691735
 C         1.7011689203       -5.3999933644      -12.4503492196
 C         2.4857641064       -4.2876343044      -13.5106293675
 O         3.3068209412       -4.7270594413      -14.2664492029
 C         2.2810705597       -2.7103627880      -13.3276538922
 C         3.4951651301       -1.8455738023      -13.4632104740
 C         3.3394135087       -0.4591716028      -12.8429053718
 O         2.2837156401        0.1280164891      -12.5008777464
 C         4.7991656225        0.5553240965      -12.6423300724
 C         4.8668167973        1.3201259376      -13.9842949378
 O         5.8576945305        1.3378681379      -14.6925424796
 C         3.6845307423        2.2811007247      -14.3832911353
 C         3.8487444194        3.6978272965      -13.8080047743
 C         5.2207708022        4.3663307171      -13.6126500086
 O         6.2231043803        4.0333170876      -14.1410246397
 C         5.4035293977        5.6573860528      -12.7871588192
 C         5.9524266645        6.8620470799      -13.6616708198
 O         5.3013276691        7.7745866644      -14.0156778918
 C         7.4087909219        6.7106878596      -14.0994741449
 C         7.5934777965        7.4321931228      -15.4723756758
 C         7.0841472439        6.6606511228      -16.6477090960
 O         6.4834674787        5.6018617544      -16.3234217081
 C         7.1729806191        7.2771065369      -18.0289023716
 C         8.4976075779        6.9929067971      -18.7461937707
 O         9.5354173599        6.7985464508      -18.1214901613
 C         8.4772057612        7.1386714693      -20.2679334037
 C         9.3712204222        6.2278239272      -21.0379620164
 C         8.8076662094        4.7464864693      -20.9166858775
 O         8.2579580510        4.4448688564      -19.9018532677
 C         9.1664765595        3.6575532126      -22.0323318177
 C         8.6857892098        2.4037509417      -21.3262870156
 O         7.6092762845        1.9490372157      -21.6132894793
 C         9.6058535133        1.7335948529      -20.3125318479
 C         8.8801063885        0.5690491564      -19.6964824867
 C         7.9195591953        0.9809951096      -18.5227507221
 O         8.2197473429        1.9628426002      -17.8727073554
 C         6.5282744591        0.2624546100      -18.2928466340
 C         5.2439659301        1.2359488998      -18.3203987594
 O         5.0940482720        2.1754856429      -17.5977414657
 C         4.4970095190        1.3320574753      -19.7415793576
 C         6.4393702042       -0.8950659868      -19.2841374308
 C         6.6469859846       -0.3460730194      -16.8519389390
 C         8.4274798449        4.1209723598      -23.3424972277
 C        10.7258737774        3.8859507961      -22.2561814028
 C         5.8940161005        6.6624801351      -18.6632077319
 C         6.9342529504        8.8360940979      -18.0855261563
 C         4.1927392029        6.2002602371      -11.9527229372
 C         6.4468272646        5.2091809478      -11.6558702823
 C         4.5171369864        1.6252744532      -11.5677748901
 C         6.0890808362       -0.2576350719      -12.5163319593
 C         2.4422069426       -5.4526274870      -11.0455376894
 C         1.7729681495       -6.7365342775      -13.2100456992
 C        -1.4334016380       -2.3868517002       -8.6477257204
 C        -1.1119558755       -4.2349377239       -6.9800089623
 C        -6.7330340840       -3.1950968315       -4.2580464977
 C        -5.1916630382       -4.8861577933       -3.1222440076
 C       -10.6842768603      -10.3916298472       -1.4990031489
 C       -10.3675840221      -10.4588769695       -4.1239562819
 C       -14.1460032285       -4.8148464531        1.4900914659
 C       -15.5328795450       -6.7910301217        0.6884926623
 C       -15.3624924191       -2.3400533074       -5.3530050537
 C       -17.6588933911       -1.3640386453       -5.0431061635
 C       -22.3434529202       -5.4430277440       -5.4922543115
 C       -22.0087590199       -4.4252387972       -3.2321879189
 H       -21.7263192749       -8.0597967500       -4.4342735670
 H       -20.0988784146       -8.3889075841       -3.6364644345
 H       -20.1958019432       -7.6837656903       -5.3523431915
 H       -20.0810068607       -4.0649794099       -7.1961591174
 H       -19.4303305315       -5.5510412231       -6.5732805286
 H       -18.1446489302       -3.0029482314       -7.0771350471
 H       -17.5673803627       -4.5142788598       -7.2544556625
 H       -14.3255320923       -2.1777585566       -2.8798003117
 H       -14.9683331159       -3.8737791673       -3.1807079755
 H       -15.4600445056       -2.5226644391       -0.5665580491
 H       -13.8374146488       -3.2581769448       -0.7027276857
 H       -13.6892694223       -7.7148411872       -1.8889711772
 H       -13.1180247565       -8.1368360018       -0.2214254890
 H       -10.9155346744       -8.0222765093       -0.8727009579
 H       -11.1371406222       -6.5678866885       -1.7413296282
 H        -9.2940788305       -7.1075850630       -4.1317310429
 H        -8.6030186916       -8.4712557575       -4.7979683971
 H        -6.4683089163       -7.5150210372       -3.9544158004
 H        -7.1825108649       -7.2668554865       -2.4122002338
 H        -5.3718964686       -3.3837457454       -6.4195538272
 H        -6.3320505502       -4.5964819823       -7.4040303700
 H        -4.6740925076       -5.8813275180       -8.1118313106
 H        -3.4059026278       -5.5250770419       -6.8233393036
 H        -2.1844185050       -4.2528538189      -11.1091479631
 H        -2.8400334541       -5.7269991324      -10.8619760221
 H        -1.4335194745       -5.9451281339      -12.8063629344
 H        -0.5722897875       -6.8207707287      -11.5174075780
 H         1.7705290330       -2.5172827820      -12.3413988384
 H         1.4607618881       -2.3845779024      -14.0126396994
 H         3.8307409030       -1.7560777225      -14.5087416222
 H         4.2914270933       -2.2624336095      -12.9198051909
 H         2.6478952346        1.8805301090      -14.0873812683
 H         3.8337933105        2.3284998107      -15.4702787603
 H         3.3477528386        3.5720337037      -12.8639129039
 H         3.2498327997        4.2934724811      -14.4713582110
 H         7.6925591275        5.6262053673      -14.2146684033
 H         8.1354023576        7.1845880494      -13.4255753184
 H         8.6420734731        7.8242057942      -15.4283434282
 H         7.0965464703        8.3402269280      -15.5613370873
 H         8.8123830686        8.1810933917      -20.4003182728
 H         7.4868452240        7.3218312099      -20.7279083076
 H        10.3720786158        6.2661628561      -20.5776500832
 H         9.6142212427        6.4845379227      -22.0458338370
 H         9.6464901313        2.3983592760      -19.4539364675
 H        10.4872583473        1.3415793457      -20.8377138357
 H         9.5889305958       -0.0603301202      -19.0898938512
 H         8.3676105225       -0.0829546487      -20.3485378451
 H         3.6656767265        0.5221110350      -19.8166408648
 H         5.0216404787        1.3184518767      -20.7144466667
 H         4.1074513229        2.2975131571      -19.6059624552
 H         5.5370225581       -1.4846325780      -18.9693723883
 H         7.2727626226       -1.5631079245      -19.1724951379
 H         6.3988515412       -0.3951981398      -20.3049813522
 H         6.4506099079       -1.4209377820      -16.8873373592
 H         5.7652549965       -0.0324523524      -16.2368606072
 H         7.6896052618       -0.1444243268      -16.5059376609
 H         7.3408905004        3.9703994113      -23.2000423685
 H         8.7251002955        3.3907042814      -24.1428931019
 H         8.6776123123        5.1541763673      -23.6356220129
 H        11.1834857992        3.0059950018      -22.6414717748
 H        11.3189012034        4.1232223970      -21.4341828011
 H        10.9564218868        4.6576723090      -22.9420935795
 H         4.9829002831        6.7361756204      -18.0550822937
 H         6.0014120742        5.5953571791      -18.8860657641
 H         5.5379636111        6.9739421457      -19.6653364116
 H         7.8636281190        9.3746729140      -17.7683465837
 H         6.1350795465        9.0846326147      -17.4759570909
 H         6.7420755244        9.1490269533      -19.1409257662
 H         4.5086768147        7.1120029325      -11.5381345261
 H         4.0349721522        5.5245517993      -11.0700013816
 H         3.4245569509        6.5376505496      -12.6532445401
 H         5.9562766791        4.8983324878      -10.8026600096
 H         7.0554917947        6.0281213131      -11.3398693674
 H         6.9881359792        4.3564202945      -12.0473399323
 H         5.4545829868        2.2874242423      -11.4722926984
 H         4.4415257118        1.1905774542      -10.5156023338
 H         3.6316532587        2.1666102392      -11.7572292145
 H         6.1855948157       -1.1629727187      -11.8309755449
 H         6.8601563861        0.2070220000      -11.9924000979
 H         6.3597290954       -0.7041986776      -13.4929376240
 H         3.4227902120       -4.9183794900      -11.0206564553
 H         2.7096098918       -6.4406696352      -10.8314450096
 H         1.8130553236       -5.0472330539      -10.2911771880
 H         1.0559420634       -7.4495349104      -12.7786903786
 H         2.7320842981       -7.1854568703      -13.0314158715
 H         1.6920408597       -6.6986024406      -14.2503603160
 H        -1.6562614534       -1.7462292472       -7.7605267730
 H        -1.8943421481       -2.0222905758       -9.5786806401
 H        -0.3850039404       -2.2918578228       -8.7745719858
 H        -1.3144208289       -5.2256071143       -6.6775171818
 H        -1.1853979086       -3.5220916275       -6.0842269988
 H        -0.0568271116       -4.1081095188       -7.1989552265
 H        -7.0159367050       -2.9411575347       -5.3274679897
 H        -5.8509670441       -2.6028787748       -3.9834377374
 H        -7.4070282183       -2.8990427436       -3.5201780659
 H        -5.4899701677       -4.3469028880       -2.2509574255
 H        -4.2801288501       -4.5011002652       -3.4927335166
 H        -4.9611991418       -5.8992870731       -2.7121940682
 H       -11.7901106173      -10.2932218970       -1.3291853416
 H       -10.1957096790      -10.1478102874       -0.5772338429
 H       -10.5213509324      -11.4802841971       -1.6428532251
 H       -11.3485994158      -10.8954958872       -4.2213701702
 H        -9.5953039848      -11.2581027223       -4.0543984665
 H       -10.0989307025       -9.7531872741       -4.8394401866
 H       -14.9467236911       -4.3868753711        2.0352023656
 H       -13.4469362392       -3.9360990320        1.2580950020
 H       -13.5739934344       -5.3642565876        2.2550441816
 H       -16.3978172599       -7.0119886177        0.0748937131
 H       -15.8487396128       -6.6292370387        1.6973444118
 H       -14.7610998187       -7.6413572915        0.7467004276
 H       -14.7767947399       -3.2184060657       -5.1502056522
 H       -14.7547153827       -1.5054903269       -4.9925919137
 H       -15.5117638669       -2.2237820776       -6.4361851835
 H       -18.3808479060       -1.4037588316       -4.2840717982
 H       -18.1500929068       -1.4186215641       -6.1053200833
 H       -17.1167117255       -0.3728637946       -5.1330263526
 H       -21.9627076342       -5.9558654145       -6.2455923428
 H       -22.8385673472       -4.5846645569       -5.9261142038
 H       -23.1760552508       -6.0272274602       -5.1770092069
 H       -22.7925198077       -3.7701538496       -3.4369161887
 H       -21.2212874130       -3.9281183608       -2.6462538443
 H       -22.3612309998       -5.1783880382       -2.4660999140
 Na      -18.5623313879       -4.4668746603       -2.0093579005
 Na        6.6434514659        3.0615028140      -16.1680766409
