232

 C        -1.3191380141        7.6069808307      -22.0310334674
 C        -1.1368541976        6.1144547531      -22.1921108263
 O        -1.9937111920        5.3144876926      -21.9955709020
 C         0.1638342988        5.5076119524      -22.9211503636
 C        -0.1355402291        4.4868343523      -24.0465376095
 O        -0.3110373293        3.3031985461      -23.8369747161
 C        -0.3918162474        4.9335842287      -25.4764452961
 C        -1.1017480075        3.9385038797      -26.2799194494
 C        -2.5420352850        3.6440477834      -25.7504965956
 O        -3.0263972516        4.2943782161      -24.8732334928
 C        -3.3724886651        2.5353337515      -26.5922428950
 C        -4.1560063142        1.7885619392      -25.3987077081
 O        -3.5447473951        1.4153371070      -24.4350484423
 C        -5.6986562021        1.6583051913      -25.3292218917
 C        -6.0308419073        1.8123511035      -23.7997597974
 C        -5.6647671436        3.0840653021      -22.9995313160
 O        -5.3954565369        4.2073798003      -23.4217368589
 C        -5.8376652461        2.7993135957      -21.3843198285
 C        -4.7219465687        1.6152240613      -20.9637909649
 O        -3.5627727095        1.6311183268      -21.2837124864
 C        -5.1265283844        0.4588214588      -19.9801713047
 C        -4.0140201951        0.1084930869      -18.9867856883
 C        -3.8988366147        0.9966739924      -17.7576219229
 O        -4.7595269084        1.8460522684      -17.5901236641
 C        -2.9328220562        0.5501976828      -16.6728362611
 C        -3.4473460098       -0.8636857010      -16.0718402130
 O        -3.6931871791       -1.7749505991      -16.8246854584
 C        -3.4572371175       -1.2164919225      -14.6412105514
 C        -3.1406340352       -2.6659808339      -14.2440147895
 C        -2.4284342108       -2.6712019177      -12.8398058027
 O        -2.1221702104       -1.6241160699      -12.3888675737
 C        -1.9774576206       -3.9665824462      -12.1708013582
 C        -2.1361234249       -3.7460802176      -10.6006149787
 O        -1.1569769657       -3.9082186590       -9.8683317205
 C        -3.3491699876       -3.0626718222      -10.0329992264
 C        -3.7787688190       -3.4433010127       -8.6080955867
 C        -4.1833925782       -4.9762532673       -8.5707210860
 O        -4.1383911992       -5.6896845953       -9.5192810944
 C        -4.7036857057       -5.6282220114       -7.3314066801
 C        -3.4537622675       -5.5746382275       -6.2874854942
 O        -3.4714783480       -4.7384431321       -5.4139920664
 C        -2.3108691772       -6.4320975619       -6.5978341056
 C        -1.0118569656       -6.2313965460       -5.8573624122
 C        -0.9855380641       -6.9301599181       -4.4998470134
 O        -1.6847864331       -7.8526571185       -4.2645476452
 C         0.2463823070       -6.4865395757       -3.5248052234
 C         0.4902515765       -4.8810686191       -3.6124344271
 O        -0.5109875266       -4.2250096178       -3.4301667675
 C         1.8598801494       -4.2390670535       -3.7544048071
 C         1.7554810211       -2.8380641347       -4.3052004622
 C         1.0425924545       -2.6780387411       -5.6860448261
 O         0.6735538081       -3.5729355007       -6.4055094335
 C         1.1562309929       -1.1441817862       -6.0965645457
 C         0.3544760888       -0.1791899034       -5.1242422206
 O         0.7901931664        0.1162217028       -4.0633767989
 C        -1.0286415926        0.4228480710       -5.6235368639
 C        -1.9858869510        0.4772063192       -4.3761174322
 C        -1.9513575898       -0.7152302229       -3.4004369755
 O        -2.2343635016       -1.7762670837       -3.9287713910
 C        -1.9049123525       -0.6213602458       -1.8509204120
 C        -3.3947263522       -0.8711568138       -1.4034099334
 O        -3.9396206190       -1.8802675533       -1.7553366661
 C        -4.2653048174        0.1880151143       -0.6389069378
 C        -5.0253973149       -0.5560290284        0.4533265877
 C        -4.0182176273       -1.3556477090        1.3201801945
 O        -2.8305950670       -1.2942408119        1.2503315942
 C        -4.8174217967       -2.2311822613        2.4824096420
 C        -4.8033499443       -3.7060900111        1.8210475674
 O        -5.7684853358       -4.2018997981        1.3041380287
 C        -3.5386714685       -4.5577606929        1.9590056240
 C        -3.6724986685       -5.8127218547        1.1127017567
 C        -3.8852348407       -5.5064590443       -0.3657321678
 O        -3.0618532664       -4.8026467773       -1.0277697426
 C        -4.9749058658       -6.1395115083       -1.2261534964
 C        -5.7127993655       -4.9683425519       -2.0690099842
 O        -5.1292636123       -4.4323198983       -2.9942314555
 C        -7.1270114264       -4.4310788095       -1.6701142564
 C        -7.6878570377       -3.3585654022       -2.6426868952
 C        -8.3691528530       -2.1540239101       -1.8947079476
 O        -7.9414992472       -1.6042231504       -0.8914660811
 C        -9.7418127070       -1.6929581136       -2.5759755620
 C        -9.6080825108       -1.4872516860       -4.1842534514
 O        -8.6295239530       -1.8400720370       -4.7847213206
 C       -10.8827150772       -1.0650544373       -4.9476778835
 C       -10.7267275362       -2.9459012924       -2.3963386798
 C       -10.2846423429       -0.5003595032       -1.8644229212
 C        -4.4453604053       -7.1321387099       -2.2816922076
 C        -5.8762552189       -6.8829568714       -0.3224809344
 C        -4.0875185305       -2.2484529026        3.9124457257
 C        -6.2894858228       -1.8242023127        2.7728365591
 C        -0.8944130535       -1.7205772926       -1.2960147141
 C        -1.5133352427        0.8163142298       -1.4406353731
 C         2.6923075532       -0.7485962230       -6.1408488008
 C         0.6665145868       -1.0110447792       -7.5625080159
 C        -0.0662167722       -7.0126508784       -2.0595302243
 C         1.4309343476       -7.2341418319       -4.0294759335
 C        -5.8027992635       -4.7676105803       -6.6770625374
 C        -5.1268177196       -7.1203625576       -7.6307739977
 C        -2.6768795544       -5.2896923132      -12.5944729815
 C        -0.4976890157       -4.2345239917      -12.4409525784
 C        -1.5734101023        0.2146183687      -17.3114749059
 C        -2.8133142830        1.5301341973      -15.4687728023
 C        -5.3271881879        3.9018381436      -20.4906697666
 C        -7.2930360333        2.5100660675      -20.9108191160
 C        -4.2266390514        3.2628260080      -27.5979735294
 C        -2.5496249364        1.3640873694      -27.2128091689
 C         1.1397212485        6.6197859085      -23.5482970577
 C         0.8777104203        4.7333084482      -21.7682127933
 H        -0.3743183472        8.1667321834      -21.8882572325
 H        -2.0782558994        7.8827710978      -21.2950640498
 H        -1.6188288273        7.8027496650      -23.0561983642
 H         0.5924868611        5.1481142637      -25.9145784464
 H        -0.9402459321        5.9061530974      -25.4739139749
 H        -0.5371425498        3.0559630981      -26.2776307628
 H        -1.1165545850        4.1453975295      -27.3215603862
 H        -5.9543957584        0.6748925302      -25.6507499344
 H        -6.1443825669        2.5321390951      -25.9703932316
 H        -5.4449101592        0.9117489719      -23.4266453286
 H        -7.1186035866        1.6437341257      -23.5816875695
 H        -5.2170222759       -0.4295845273      -20.4908222465
 H        -6.0997665650        0.6318590981      -19.5625216660
 H        -3.0578769129        0.0357291338      -19.5610942123
 H        -4.2088415359       -0.9256361053      -18.5397384438
 H        -4.4540101220       -1.0201345417      -14.1546828579
 H        -2.7625036314       -0.5722187023      -14.1353993840
 H        -2.4538922190       -3.0402506419      -14.9709076878
 H        -4.0343942839       -3.2294185620      -14.2529891549
 H        -4.3163247489       -3.0305265798      -10.4736802754
 H        -3.0993432906       -1.9450149619      -10.0377266232
 H        -4.6625660546       -2.7799455462       -8.3252333690
 H        -3.0011475195       -3.3250867597       -7.7965197558
 H        -2.0556329125       -6.2108405498       -7.5956906835
 H        -2.4805909953       -7.5050969657       -6.4695388821
 H        -0.6783556059       -5.1933867556       -5.6719822417
 H        -0.2019963669       -6.6774396542       -6.4946720774
 H         2.4640331360       -4.8558738808       -4.5029557007
 H         2.3620105736       -4.1639527002       -2.7370701923
 H         2.7267481261       -2.4077206111       -4.4636228198
 H         1.1036465515       -2.3311211155       -3.5575769389
 H        -1.5842268252       -0.1899033782       -6.4296094742
 H        -0.9352337266        1.4134811910       -6.0839948798
 H        -2.9396383998        0.6071080879       -4.6922528506
 H        -1.7731662860        1.3588779322       -3.8561154181
 H        -4.9751323798        0.7259102143       -1.3536273358
 H        -3.7149457995        1.0171602427       -0.2352272519
 H        -5.8456819741       -1.2067837694       -0.0200563164
 H        -5.5250094436        0.0847321127        1.2402757093
 H        -3.2082626533       -4.8379789443        2.9641628432
 H        -2.6344052207       -4.0254192661        1.6897625467
 H        -4.4909028624       -6.3991718845        1.5256931462
 H        -2.7678874966       -6.3969366116        1.1752159945
 H        -6.9454805952       -3.8745902466       -0.6994873699
 H        -7.8695313205       -5.2017701101       -1.4950043875
 H        -8.4531823178       -3.8449363100       -3.2605303568
 H        -6.8842720429       -3.0413591420       -3.2998724769
 H       -11.5043038259       -0.2809119121       -4.5036178210
 H       -11.5759566764       -1.9451505100       -4.6942516433
 H       -10.7984023349       -0.7040867662       -5.9121296205
 H       -10.5948069742       -3.5723013712       -3.2276918774
 H       -11.8259497443       -2.5632242403       -2.3889824047
 H       -10.4986403990       -3.4797402532       -1.4847949426
 H       -10.4864111327       -0.8234011938       -0.8509232040
 H       -11.3009582388       -0.2741181776       -2.2556924051
 H        -9.7444483136        0.4280349080       -1.8175192278
 H        -5.1065640565       -7.2776920710       -3.1572128576
 H        -4.1312899850       -8.1066834651       -1.8007526074
 H        -3.5013472175       -6.6450602173       -2.6172731537
 H        -6.7220414217       -7.3152613787       -0.8216178359
 H        -6.4802280553       -6.2872728071        0.4307539676
 H        -5.4294194144       -7.6240894599        0.2771121628
 H        -4.5162142317       -2.9438918729        4.6097374495
 H        -4.1797150702       -1.3051090064        4.5137696968
 H        -2.9699212033       -2.4499146511        3.7855341322
 H        -6.2628992705       -0.8163650283        3.1568534011
 H        -6.7553633304       -2.4562326587        3.5219119262
 H        -6.9235533947       -1.7585224646        1.9160327291
 H         0.1055155053       -1.3794890185       -1.7017346844
 H        -1.1411689819       -2.7672553361       -1.6034000666
 H        -0.9628594631       -1.6881043119       -0.2093688000
 H        -0.6120391993        1.1465777153       -1.9477078230
 H        -1.2824068841        0.9134834717       -0.3503117654
 H        -2.2194227594        1.6142692409       -1.7473518397
 H         2.9531493556       -0.3972430296       -7.1796292414
 H         3.3720371701       -1.5956265250       -5.9952955831
 H         2.9533664440       -0.0322842639       -5.3928030531
 H        -0.2156899703       -1.5952541330       -7.6060396632
 H         1.3993014574       -1.4078096053       -8.2406388107
 H         0.3994680088       -0.0172589981       -7.8229380638
 H         0.8378484241       -7.3163740982       -1.4913993944
 H        -0.5631760569       -8.0018571588       -2.3189168596
 H        -0.5807760707       -6.4113839061       -1.3186343543
 H         1.2244835665       -8.2596900996       -3.6665982990
 H         2.2506245545       -6.7178273707       -3.4074374341
 H         1.6045677979       -7.1663581974       -5.0905512900
 H        -6.5352784951       -4.5503924759       -7.3792717952
 H        -5.4820661087       -3.8074805712       -6.4548736413
 H        -6.2743339958       -5.1525889751       -5.7487338210
 H        -5.0676430296       -7.6234085083       -6.6724609463
 H        -4.5722504069       -7.5730127107       -8.4044531499
 H        -6.1221982938       -7.1518306401       -7.9879283651
 H        -3.2988766492       -5.2035066120      -13.4442389661
 H        -3.5220203983       -5.4712634988      -11.8851849605
 H        -2.0569654795       -6.1051485451      -12.5914456602
 H        -0.3646454413       -5.2353115694      -12.9711019919
 H         0.1832204591       -4.1884323997      -11.5973720602
 H        -0.2229519178       -3.4092011735      -13.0745524066
 H        -1.3188784510        0.7986934303      -18.1538480232
 H        -1.5438751180       -0.8240392206      -17.7345560593
 H        -0.9018013405        0.3638309136      -16.4685173730
 H        -3.5464806694        1.7715616603      -14.7313524393
 H        -2.6529579288        2.5442495986      -15.8090051254
 H        -1.9361358545        1.2000359273      -14.8186887418
 H        -5.8650096353        4.7668239487      -20.5069209913
 H        -4.3005240263        4.0394085184      -20.5635478149
 H        -5.4458458563        3.6420135768      -19.4095144487
 H        -7.7675046432        3.5534258590      -20.8130985068
 H        -7.1872461087        2.2203630429      -19.8849824755
 H        -7.8436327594        1.8321117357      -21.5750664534
 H        -4.7290772114        4.1581186895      -27.1080726353
 H        -4.9540753052        2.6234798248      -28.1511304880
 H        -3.5391802011        3.6633243047      -28.3750667795
 H        -1.9469354868        1.7416012935      -28.0284316637
 H        -3.1653340756        0.5635645910      -27.5935602695
 H        -1.9605169572        0.7179079501      -26.4929817710
 H         1.6892261604        7.0869125800      -22.7668452183
 H         0.6255773559        7.4452470007      -23.9888847065
 H         1.8117763707        6.1372495901      -24.2997432904
 H         0.2298582050        3.8720510913      -21.5942753340
 H         0.7585222158        5.3751913527      -20.9403602284
 H         1.8654165569        4.3649823850      -21.8610413394
 Na       -3.1056547356       -3.7424036882       -3.0642533986
 Na       -2.5454905014        3.1094999654      -22.7354546483
