232

 C        -1.3587469840        7.5956303193      -22.2432058303
 C        -1.0975717686        6.1268733227      -22.4630651044
 O        -1.9336106664        5.3465967197      -22.0158666113
 C         0.2276869538        5.5115260770      -22.8908717239
 C        -0.1694985746        4.5231439769      -24.1100860193
 O        -0.2511970900        3.3557796250      -23.7684033367
 C        -0.4578088111        4.9669737761      -25.5556599812
 C        -1.1171428505        3.8029636191      -26.3645603355
 C        -2.5545549357        3.5539687708      -25.9118761517
 O        -3.0485900543        4.2722050795      -25.0548326567
 C        -3.4897187407        2.5323676329      -26.5367457567
 C        -4.2281703066        1.8040731764      -25.3059682003
 O        -3.4474660634        1.3650669974      -24.4273170548
 C        -5.6865970043        1.6699017767      -25.1927540345
 C        -6.3203967220        1.8071925393      -23.7403169375
 C        -5.7435953521        2.9806780728      -22.8683905448
 O        -5.3545442339        4.0322854873      -23.3299176322
 C        -5.8268086337        2.6700842847      -21.2918509177
 C        -4.8723543112        1.5485367297      -20.9183134566
 O        -3.7014911589        1.7249733172      -21.2682671704
 C        -5.1389843388        0.3834939200      -20.0336030362
 C        -4.0260793863        0.2285648421      -19.0175101377
 C        -4.0617830846        1.0463492985      -17.6400768116
 O        -4.6570056398        2.0498718833      -17.3540774115
 C        -2.8928316919        0.4612552645      -16.6151581057
 C        -3.4066286058       -0.9616181689      -16.0515379665
 O        -3.7344398468       -1.8219496916      -16.8688478813
 C        -3.4710942839       -1.1142461992      -14.5891345491
 C        -3.2342618712       -2.5888079950      -14.1522108759
 C        -2.4595754976       -2.5945962126      -12.8548457899
 O        -2.1254541392       -1.5274655987      -12.3520237861
 C        -1.9847734786       -3.9953464304      -12.2605314847
 C        -2.0389200885       -3.7254526882      -10.5702973078
 O        -1.0323819309       -3.9606428855       -9.9401875354
 C        -3.3662319441       -3.1516450510      -10.0906434827
 C        -3.7348112333       -3.6294065387       -8.7198330844
 C        -4.0662979250       -5.0688144874       -8.6852100603
 O        -4.0521647766       -5.7178815390       -9.6846585817
 C        -4.6250730925       -5.6223708309       -7.1910726089
 C        -3.4147346230       -5.5001326520       -6.2386683860
 O        -3.4365244448       -4.6419226118       -5.3053592469
 C        -2.3224870884       -6.4384503252       -6.7666507130
 C        -0.8898728460       -6.2840484988       -6.1473864151
 C        -0.8372372299       -6.8171388321       -4.6567364748
 O        -1.6095866785       -7.6963307630       -4.2790301809
 C         0.3727210591       -6.5884978755       -3.5770044655
 C         0.4499611445       -4.9929549772       -3.4891214159
 O        -0.4688170460       -4.2148834008       -3.2295984796
 C         1.8340481778       -4.3641800455       -3.7431633103
 C         1.6746031585       -2.9269780244       -4.1634432495
 C         1.1158559335       -2.6535728067       -5.6040409702
 O         0.5150856603       -3.4605649695       -6.2667472120
 C         1.2313260026       -1.1195148588       -6.1058980472
 C         0.3515055770       -0.2403408450       -5.1952764394
 O         0.7465025529        0.0939173566       -4.0638273734
 C        -1.0101859691        0.3363869907       -5.5213834886
 C        -2.0193740261        0.5041930328       -4.3926251175
 C        -2.0289407641       -0.7614901750       -3.4316237231
 O        -2.2930194254       -1.8247105901       -3.9361220534
 C        -1.8957683950       -0.6122917283       -1.8630749908
 C        -3.4653914502       -0.9202805708       -1.3742370707
 O        -3.9807493601       -1.9972422435       -1.6176723769
 C        -4.1032876990        0.0905808641       -0.5535359148
 C        -5.0509959042       -0.5559971921        0.5367809289
 C        -4.1592766023       -1.3400084926        1.5375261348
 O        -2.9303713782       -1.3625298350        1.3703074235
 C        -4.8367644377       -2.3036629066        2.5646597593
 C        -4.8346057714       -3.8221827759        1.9438518921
 O        -5.8157563075       -4.1700924564        1.2921783631
 C        -3.6040265659       -4.6076153278        2.0329174802
 C        -3.4735888212       -5.8610314175        1.0259291452
 C        -3.7447741175       -5.4535420557       -0.4526765355
 O        -2.9241162804       -4.7322992744       -0.9835976574
 C        -5.0244405533       -6.0541287121       -1.3140817551
 C        -5.7113867102       -4.8358107449       -2.0758073926
 O        -5.2549426839       -4.3702007780       -3.0465500574
 C        -7.1489603483       -4.3872468037       -1.6191803441
 C        -7.6440305854       -3.2231097786       -2.6371171684
 C        -8.2622213773       -2.0434533691       -1.9607981808
 O        -7.8739589386       -1.5744449771       -0.9075112352
 C        -9.7387455524       -1.6145542088       -2.5960852859
 C        -9.6685588252       -1.5852217276       -4.1092454485
 O        -8.6535816051       -1.8924839209       -4.7308364336
 C       -10.8928499559       -1.2401803372       -4.9819354793
 C       -10.5554411525       -2.9297820917       -2.3744566598
 C       -10.3774697780       -0.4513811711       -1.8784443604
 C        -4.3226300368       -7.0765474926       -2.3294525548
 C        -6.0234987359       -6.8737379485       -0.3824157719
 C        -4.1196607171       -2.2489113190        3.8767768415
 C        -6.2474599077       -1.8912096503        2.8444118988
 C        -1.0399226461       -1.6469198148       -1.1801102318
 C        -1.5359440460        0.8226577477       -1.4613553358
 C         2.7000033380       -0.6915697635       -5.9655968480
 C         0.6592707064       -1.0800839787       -7.5950670411
 C         0.0226726997       -6.9104902369       -2.1687799724
 C         1.5914716857       -7.3621516802       -4.0949464556
 C        -5.8119764184       -4.8423046563       -6.6646312158
 C        -5.0039402616       -7.0824702137       -7.5023646017
 C        -2.7847242395       -5.2578142692      -12.6974210908
 C        -0.5101707729       -4.1810296009      -12.6886126007
 C        -1.5711530536        0.1857013091      -17.3428672383
 C        -2.7044431136        1.6712779662      -15.6587565235
 C        -5.3386708342        3.9208337174      -20.4518702183
 C        -7.3318003559        2.4769853449      -20.9725910512
 C        -4.3005945891        3.3270571239      -27.5885793400
 C        -2.7395892258        1.3724445671      -27.2347029305
 C         1.2600408980        6.6133374316      -23.4054366461
 C         0.9231291930        4.6925382645      -21.7725486591
 H        -0.4197880291        8.1434781871      -22.0205112348
 H        -1.9391190595        7.5494727044      -21.2873622129
 H        -1.8786149029        8.0778033051      -23.0628251535
 H         0.5343578113        5.2647758092      -25.8788755974
 H        -1.0576595713        5.9305247413      -25.5035281902
 H        -0.4768977909        2.8430524828      -26.2630082699
 H        -1.1123160567        3.8437121653      -27.4363135444
 H        -5.7711556557        0.6582220579      -25.5676028062
 H        -6.0263476146        2.3431058201      -25.8402983028
 H        -6.1070080227        0.7891449251      -23.3302843051
 H        -7.4346085215        1.9542415157      -23.7927492898
 H        -5.2467281227       -0.5947305766      -20.5293341449
 H        -6.0779146722        0.5893127048      -19.5840448082
 H        -3.0772697708        0.6396113395      -19.4645209083
 H        -3.8701164647       -0.8368871040      -18.7721695513
 H        -4.4084559490       -0.6885092897      -14.2444882400
 H        -2.6986458093       -0.4526268386      -14.1291085655
 H        -2.7136464972       -3.0616981853      -14.9231264698
 H        -4.1300668277       -3.1563424730      -13.9414903876
 H        -4.2073323709       -3.2771123940      -10.6641999551
 H        -3.3345272247       -2.0900718044      -10.0546653093
 H        -4.6789066043       -3.0380840081       -8.3153927058
 H        -2.9598334793       -3.4756595049       -8.0120015464
 H        -2.2314098749       -6.1706976307       -7.8135470605
 H        -2.5472754721       -7.5102076640       -6.5989511319
 H        -0.4841472466       -5.2537902195       -6.0766624872
 H        -0.1716907271       -6.8501110205       -6.6714504416
 H         2.3679762186       -4.8770809970       -4.5470545704
 H         2.4472938597       -4.2672098969       -2.7866793893
 H         2.6866071252       -2.4543044369       -4.2552315211
 H         1.0103363802       -2.4945153760       -3.3950701378
 H        -1.5421142837       -0.2640941045       -6.2267192780
 H        -0.9018153078        1.2756155394       -6.0368439108
 H        -2.9603989738        0.7663399585       -4.8440470550
 H        -1.7311996951        1.3752034911       -3.8151027464
 H        -4.7244628061        0.7772202480       -1.1438746329
 H        -3.3834338435        0.8347937036       -0.0658866730
 H        -5.7966468785       -1.2593755659        0.0494182842
 H        -5.6019089447        0.2234968071        1.0613194820
 H        -3.6751552561       -5.0468608245        3.0280884003
 H        -2.7434740869       -4.0891205017        2.1751159752
 H        -4.0841520199       -6.6760306108        1.4089170134
 H        -2.4522258196       -6.2564955391        1.0728293100
 H        -7.2189533829       -4.1303426056       -0.6254823660
 H        -7.8229769565       -5.2289207138       -1.7940620087
 H        -8.4026896945       -3.7089355648       -3.3675855026
 H        -6.7315324644       -2.9219715273       -3.2509365204
 H       -11.4209597755       -0.3692649059       -4.6832296543
 H       -11.6868171049       -1.9649578122       -4.9332117505
 H       -10.5580416450       -0.8833913050       -5.9383784037
 H       -10.4147042266       -3.5851617876       -3.2901279535
 H       -11.5782878922       -2.6786413783       -2.2367730714
 H       -10.1807664442       -3.4660524588       -1.5063084313
 H       -10.3403166568       -0.5276102468       -0.7996829775
 H       -11.4132189309       -0.3666475719       -2.1261085683
 H        -9.9589755873        0.4660326527       -2.1153141811
 H        -4.9242739198       -7.3052935383       -3.2107594496
 H        -4.0770362532       -7.9306558449       -1.7182786316
 H        -3.2890295237       -6.6906308647       -2.6880155197
 H        -7.0126406239       -7.1640396612       -0.8689808425
 H        -6.4625167617       -6.4057505054        0.4593927201
 H        -5.6289596690       -7.8066318871        0.0811335089
 H        -4.3683318128       -3.0189246060        4.5639287749
 H        -4.4278292940       -1.3793279101        4.4951132160
 H        -3.0318346229       -2.1432021963        3.7310140052
 H        -6.1444758177       -0.8934809997        3.2365779464
 H        -6.7446486586       -2.4919125816        3.5719507750
 H        -6.8949053859       -1.7600776623        1.9465536262
 H         0.0411349521       -1.3677113461       -1.3427348277
 H        -1.2371673286       -2.5963241789       -1.7372505522
 H        -1.3173096829       -1.8351258937       -0.1489539382
 H        -0.5097980534        1.1530722491       -1.6666180625
 H        -1.6302975817        0.9214593922       -0.3249884489
 H        -2.0963507862        1.6411009802       -1.9737747093
 H         2.9916990382       -0.0366641895       -6.7971282017
 H         3.3932110011       -1.5018095655       -6.0210434760
 H         2.8746890525       -0.2629588318       -4.9897135614
 H        -0.2777435979       -1.6063401886       -7.6274576022
 H         1.3672222002       -1.5762487471       -8.2515958306
 H         0.4389732759       -0.0893845209       -7.9512207728
 H         0.8621615209       -6.8561067897       -1.5018430378
 H        -0.3363328904       -7.9595390184       -2.0842291411
 H        -0.6793908695       -6.1709405832       -1.7746266073
 H         1.2653975902       -8.4176493611       -3.9157352268
 H         2.4020851036       -7.0844761683       -3.4007618317
 H         1.8291203603       -7.0954903744       -5.1383092058
 H        -6.4935946582       -4.7793073177       -7.5402183885
 H        -5.6558572755       -3.7605729010       -6.5109293582
 H        -6.3168669528       -5.1823618334       -5.8188049915
 H        -5.5324562282       -7.5738088493       -6.7385858984
 H        -4.1967613866       -7.6406891739       -7.8393066895
 H        -5.5747477557       -7.0310954109       -8.4168907012
 H        -2.9545042864       -5.1832851845      -13.7666801281
 H        -3.8293006033       -5.2308792983      -12.4326034363
 H        -2.3033606205       -6.2618359183      -12.3375525393
 H        -0.3555765049       -4.8096175322      -13.5508372773
 H         0.0348953018       -4.6728312583      -11.8861736865
 H        -0.1366077273       -3.1331859380      -12.8003012036
 H        -1.1742571249        1.1175284263      -17.7407791036
 H        -1.7724369621       -0.3987266139      -18.2534117185
 H        -0.7864492897       -0.2327443378      -16.6395065601
 H        -3.4733458806        1.9500916084      -14.9191743830
 H        -2.6554751396        2.5761541865      -16.2475759907
 H        -1.8753536184        1.6116096431      -14.9822541950
 H        -6.0292777105        4.7285722035      -20.5126934932
 H        -4.3156473484        4.1823869419      -20.7882232670
 H        -5.2790464100        3.8089017939      -19.4206695757
 H        -7.6934314880        3.5244959769      -20.9174182111
 H        -7.4129869779        2.1046592060      -19.9477301464
 H        -7.8599745023        1.9263105079      -21.7359635811
 H        -4.9796342638        4.2014519677      -27.2974570893
 H        -4.8073481786        2.5308307984      -28.2683438252
 H        -3.5324154615        3.6889107189      -28.2966689442
 H        -2.2147715665        1.8992521265      -28.0795536341
 H        -3.3760574613        0.5163288167      -27.6461335681
 H        -2.0167805395        0.7387600681      -26.6646837615
 H         1.5658016646        7.2487663119      -22.5689557992
 H         0.6922400868        7.3426085565      -23.9821651482
 H         2.0369184045        6.1976836799      -23.9528328918
 H         0.2529879068        3.9466608092      -21.4616141956
 H         1.1235812176        5.3480020549      -20.9316020887
 H         1.8731560637        4.1796512655      -22.1526279025
 Na       -3.1068282555       -3.6775996893       -3.1885738252
 Na       -2.5964613839        3.2136190596      -22.7019163719
