232

 C        -1.2153345152        7.6550105619      -23.0328711839
 C        -1.1354771196        6.1686695372      -22.8192456837
 O        -2.1111017930        5.5569920535      -22.4434205464
 C         0.1726459087        5.3432646991      -23.2944039269
 C        -0.2898331149        4.0760197976      -24.2605109380
 O        -0.8596132179        3.1199470860      -23.7733692499
 C        -0.1867469033        4.2719198026      -25.7721146102
 C        -1.2367089126        3.4806747518      -26.5085620391
 C        -2.6575605919        3.7318629416      -25.9249394191
 O        -2.9661135528        4.6130347007      -25.1441405620
 C        -3.7363663714        2.7416275842      -26.4257859737
 C        -4.4408849232        2.1007287953      -25.2126079733
 O        -3.8810336452        1.5817965776      -24.2884977262
 C        -5.9919086186        1.9503886532      -25.2496007278
 C        -6.4636677912        1.7220312997      -23.7873448810
 C        -6.0244682947        2.8188289485      -22.8963381906
 O        -5.4951842260        3.8584469672      -23.3489271918
 C        -6.2704881207        2.6378704407      -21.2329499701
 C        -5.0419289741        1.8316373161      -20.6455052922
 O        -3.9316438802        2.3346172124      -20.7436231113
 C        -5.3178662678        0.6254279925      -19.7319638527
 C        -4.0352990213        0.1543311595      -18.9592039408
 C        -3.7286210883        1.0859702532      -17.7181135390
 O        -4.4165514784        2.0731435693      -17.5965146329
 C        -2.5672984932        0.5899893403      -16.6557442954
 C        -3.1588372868       -0.6140017006      -15.8830761423
 O        -3.1818044729       -1.6281996165      -16.5752862849
 C        -3.7157825649       -0.4848599618      -14.4641614162
 C        -3.8501081560       -1.8835539150      -13.7149530640
 C        -2.5492957296       -2.2045691907      -12.9874063440
 O        -1.7868298028       -1.3847412513      -12.6091658302
 C        -2.1476524682       -3.6897606564      -12.6559489054
 C        -2.0280307966       -3.8681966625      -11.0852316883
 O        -1.0969634002       -4.4406528187      -10.5522440987
 C        -3.1772119987       -3.3414418468      -10.2499708365
 C        -3.1832430744       -3.9106644262       -8.8411396050
 C        -3.8560487790       -5.2617525232       -8.7028866901
 O        -4.1311440340       -5.9007769453       -9.6780138362
 C        -4.2724295271       -5.8375982895       -7.1485621638
 C        -2.9670511589       -5.8181586675       -6.3809215319
 O        -2.7626580674       -5.1568043568       -5.3836605848
 C        -1.8209815255       -6.6108745440       -7.1306927071
 C        -0.4977303165       -6.4365414562       -6.3223688656
 C        -0.6265273636       -6.8267681682       -4.7433849666
 O        -1.6462614505       -7.3120292080       -4.2624615045
 C         0.6114752649       -6.6546451462       -3.7368755444
 C         0.7436614869       -5.0198222472       -3.5069508752
 O        -0.2573734349       -4.4850885947       -3.0178114409
 C         2.0537351222       -4.3554160447       -3.6745475443
 C         2.1186834729       -2.8988511701       -4.0472924971
 C         1.1578662274       -2.5592398045       -5.2197756009
 O         0.3389693473       -3.3109525879       -5.6738747331
 C         1.2345921454       -0.9797909199       -5.7181157479
 C         0.3275698176       -0.1199157521       -4.8026958335
 O         0.6413878841        0.3132418696       -3.7262974506
 C        -1.0591464420        0.1229701100       -5.4371659771
 C        -2.1467036821        0.4788708692       -4.3343525009
 C        -2.3481201255       -0.7127595675       -3.3725632515
 O        -2.5501936725       -1.7831150110       -3.8969913126
 C        -2.1219175382       -0.5210491996       -1.7645427465
 C        -3.4667830053       -1.0756516902       -1.1667998908
 O        -3.9843298582       -2.0599817970       -1.5998790813
 C        -4.2595769772       -0.2565102589       -0.1519611775
 C        -5.1498431722       -0.9222742023        0.8226851191
 C        -4.2314434761       -1.5982090032        1.9179543744
 O        -3.0617798420       -1.4158952629        2.0808546484
 C        -5.1128944458       -2.6338007346        2.8792879259
 C        -4.9875970885       -3.9394248440        2.0840488413
 O        -5.9319203795       -4.4554803977        1.4930534416
 C        -3.6620121430       -4.6379825663        1.9971550968
 C        -3.6816474107       -5.8352487041        1.0399284816
 C        -3.7563191246       -5.4459043871       -0.4314228571
 O        -2.8602627427       -4.8057710685       -0.9487477450
 C        -4.9424442571       -5.8645859563       -1.5022794909
 C        -5.4639062823       -4.7212811673       -2.3110584900
 O        -4.8559395159       -4.3162825526       -3.3260688776
 C        -6.4166825076       -3.7903770817       -1.6833261953
 C        -7.5517035149       -3.1112510380       -2.5351554269
 C        -8.3029935893       -1.9124530574       -1.9626817789
 O        -7.7936200157       -1.1837135166       -1.1427634564
 C        -9.7561591751       -1.7113757699       -2.4519405566
 C        -9.7641847423       -1.6264892590       -4.2010824611
 O        -8.7552922690       -1.5368250343       -4.8378103138
 C       -11.1390048559       -1.7703472293       -4.8228982054
 C       -10.6281085468       -2.9532455312       -1.9341695540
 C       -10.2788678437       -0.4044905277       -1.9766807740
 C        -4.1235582157       -6.8752907879       -2.4097660618
 C        -6.0828002927       -6.6110444496       -0.8694876169
 C        -4.3468833324       -2.6707182358        4.2524537514
 C        -6.6004666967       -2.2767029713        3.1016430314
 C        -1.0346228881       -1.4574118941       -1.2513362279
 C        -1.8886491113        0.9740276194       -1.6258633054
 C         2.6238240793       -0.4895385994       -5.3817224649
 C         1.0378027397       -0.8661897727       -7.2259496423
 C         0.1933721699       -7.1346863683       -2.3327089496
 C         1.8282922084       -7.3617467107       -4.3257434665
 C        -5.3144966751       -4.9044713565       -6.5736018870
 C        -4.8003114129       -7.3055161458       -7.3597668175
 C        -2.9885675012       -4.8685464807      -13.1871926171
 C        -0.6632892718       -3.9422450638      -13.3092196402
 C        -1.3630913927        0.0815716392      -17.4290700023
 C        -2.1531662958        1.7377645210      -15.7686680813
 C        -6.1128635743        3.9853687121      -20.5377127880
 C        -7.6344950675        2.0369603232      -20.8634746511
 C        -4.5429741634        3.4707492221      -27.5405476418
 C        -3.1236470342        1.3691180355      -27.0734755940
 C         1.1837107384        6.1682819360      -24.1247563880
 C         0.7351996378        4.7304961074      -22.0155463230
 H        -0.5355482729        8.2853208903      -22.4261673162
 H        -2.2764807479        7.8903802765      -22.8588392528
 H        -1.0147085335        7.7260607024      -24.1202614040
 H         0.8542447195        3.9886891345      -26.0538459866
 H        -0.2055609463        5.3423018210      -25.8434325405
 H        -1.0613351670        2.3953174837      -26.5345055250
 H        -1.1544342069        3.6416023796      -27.6629733152
 H        -6.2077656583        1.0093810703      -25.8348823612
 H        -6.4282865914        2.8543977666      -25.8214031315
 H        -6.0234239262        0.7934565979      -23.4607533151
 H        -7.4781634867        1.5222999021      -23.8294704341
 H        -5.7197705364       -0.2061209901      -20.3669704785
 H        -6.1359927685        0.9877173060      -18.9743097390
 H        -3.2997535899        0.1157965186      -19.7230281090
 H        -4.2334218168       -0.7919038129      -18.4760246915
 H        -4.6948176542        0.0568739580      -14.5501564686
 H        -3.1696722334        0.2428898318      -13.9110729290
 H        -4.1198931375       -2.7204893038      -14.4180593795
 H        -4.7121560639       -1.8056784270      -13.0578426160
 H        -4.2402281193       -3.3775167366      -10.5099905927
 H        -3.0363436437       -2.2069049247      -10.1233161067
 H        -3.8455231520       -3.3269311033       -8.2472042440
 H        -2.2061583010       -3.9004391070       -8.4282576592
 H        -1.7435012540       -6.2209958981       -8.1996327194
 H        -2.0392185328       -7.6969186592       -7.1491807929
 H        -0.3350041614       -5.4031754692       -6.2798813367
 H         0.3881993523       -6.9057661023       -6.7885460576
 H         2.6716202853       -4.8238148364       -4.4319237475
 H         2.5222387472       -4.4345234938       -2.7436975394
 H         3.1529375758       -2.6047528081       -4.2487113087
 H         1.7429319628       -2.2083163084       -3.2395378191
 H        -1.4051627285       -0.6815570880       -6.0696927446
 H        -0.9784266141        0.9664154090       -6.0331057789
 H        -3.0912950783        0.7065596777       -4.9463274494
 H        -1.7868065992        1.4676055675       -3.8576289622
 H        -4.7281491246        0.5450097984       -0.7886949863
 H        -3.5516324482        0.1720154102        0.4756019013
 H        -5.7330518291       -1.5728428688        0.2557186728
 H        -5.6980522460       -0.2038631697        1.4186696647
 H        -3.4212510424       -5.1116432895        2.9675213990
 H        -2.8956969072       -3.8578897779        1.7495583911
 H        -4.4539975008       -6.5918285190        1.3181078404
 H        -2.8003759851       -6.4959996124        1.2595030102
 H        -5.8531145696       -2.9122508444       -1.2610454134
 H        -6.8569982761       -4.2101436835       -0.8004486796
 H        -8.2139731104       -3.8735327641       -2.9878094923
 H        -7.0985036693       -2.7436793598       -3.4697938920
 H       -11.5558810293       -0.8907669840       -5.2624033554
 H       -11.9281767400       -2.1150366712       -4.0976224412
 H       -11.1686895759       -2.4987708868       -5.5760608810
 H        -9.9816254270       -3.6928309917       -1.6086901519
 H       -11.2927916294       -3.4095815466       -2.7685173207
 H       -11.3033276364       -2.6730724140       -1.1255845152
 H       -10.3465497181       -0.4189493371       -0.9260778675
 H       -11.2504541787       -0.1423187657       -2.3341286072
 H        -9.6628405480        0.4073402189       -2.1464581595
 H        -4.6593814887       -7.0918365224       -3.3031376160
 H        -3.8448494310       -7.7679110263       -1.8161103977
 H        -3.2181565038       -6.3285211543       -2.6698573758
 H        -6.9813666705       -6.8727834137       -1.3560561220
 H        -6.3655126966       -6.2304667673        0.1700695076
 H        -5.7710530905       -7.5929488275       -0.5672227515
 H        -4.3763588102       -3.5348656950        4.8398981699
 H        -4.8120357031       -1.8484313003        4.7910816937
 H        -3.2862443116       -2.3912973492        4.0765414398
 H        -6.6622675534       -1.4081315528        3.7609485644
 H        -7.0809772823       -3.1283892998        3.6195453389
 H        -7.0974250599       -2.2079005085        2.1523561528
 H        -0.0283692692       -1.2066557111       -1.6327707489
 H        -1.2273872312       -2.5099331710       -1.5345715333
 H        -1.0044020656       -1.2575833367       -0.1997822007
 H        -1.0721506704        1.2941321897       -2.2836016340
 H        -1.5214839319        1.3414245397       -0.6330032696
 H        -2.7739301209        1.6528286928       -1.7456710861
 H         2.9775680024        0.3118962935       -6.0408389885
 H         3.3441782321       -1.2771551144       -5.5301181687
 H         2.8289675151       -0.1050004293       -4.4274226451
 H         0.2214064420       -1.5110642173       -7.5302568100
 H         1.8937638794       -1.1457761563       -7.8368107182
 H         0.7367859640        0.1372105854       -7.5244678043
 H         0.9969266916       -7.6610094891       -1.8401307953
 H        -0.6545114329       -7.8345864913       -2.3214274426
 H        -0.2085316737       -6.4034001044       -1.7223043592
 H         1.4361530445       -8.1870935344       -4.9123663062
 H         2.3962453694       -7.8039704097       -3.4478511956
 H         2.3609355452       -6.6712532933       -4.8982416062
 H        -6.1461421723       -4.7085530957       -7.2501740468
 H        -4.7720285586       -3.9731838192       -6.3913118770
 H        -5.8376472433       -5.1978722161       -5.5930609759
 H        -4.6526394803       -8.0429565587       -6.5681179073
 H        -4.4650088498       -7.7432016894       -8.2545546834
 H        -5.8428083939       -7.1378129566       -7.4601013939
 H        -2.8615668564       -4.9429434477      -14.2995464613
 H        -4.0522851140       -4.7355628286      -12.7227751291
 H        -2.6254180073       -5.8100430546      -12.8037999483
 H        -0.0728116181       -4.5779028874      -12.6163229364
 H        -0.3395893842       -2.9387717597      -13.4841233865
 H        -0.6609304275       -4.5266727631      -14.1739100591
 H        -1.2683949139        0.5385490073      -18.3996341652
 H        -1.4410363581       -1.0721723851      -17.4728926945
 H        -0.4297311444        0.3930009015      -16.9290764483
 H        -2.8429289322        2.1601940012      -15.1101004329
 H        -1.6818913358        2.4935350375      -16.3158204496
 H        -1.2385753771        1.4287171211      -15.1908285154
 H        -6.7640781839        4.6906411040      -21.0564217718
 H        -5.1439435912        4.5206816524      -20.6603308485
 H        -6.4859971784        3.8955349713      -19.4637313433
 H        -8.4329635100        2.7664609833      -21.1676219063
 H        -7.6719809858        2.0267072776      -19.8124215003
 H        -7.9329264122        1.0747219292      -21.2145902431
 H        -5.3286131902        4.1353775525      -27.0653052425
 H        -5.0691893512        2.7160656295      -28.2179653246
 H        -3.8490695809        4.0898422621      -28.1634347917
 H        -2.5215041770        1.4844542895      -28.0066993368
 H        -3.9752516884        0.7421841524      -27.3758092580
 H        -2.3198363649        0.8615269089      -26.4053239907
 H         1.5278410390        6.8833385385      -23.4267669012
 H         0.6518252783        6.6568418810      -24.9105703127
 H         2.1010713552        5.6264937969      -24.4669197581
 H         0.0040923652        3.9807337053      -21.6559416763
 H         0.7938244061        5.5084432327      -21.2139233987
 H         1.7757356290        4.4027358284      -22.2300721639
 Na       -2.5615310296       -4.0516428496       -3.2019631931
 Na       -3.0577715451        3.3204491347      -22.6286822056
