232

 C        -1.1043925246        7.8019940464      -23.3072210359
 C        -1.2457729425        6.2588733519      -23.1694931874
 O        -2.2828551185        5.7881554363      -22.7348999500
 C        -0.0602122687        5.2355056392      -23.4473914139
 C        -0.4705333356        3.9978451927      -24.3606976934
 O        -0.9561514634        3.0224816727      -23.7674572153
 C        -0.1921293412        3.9359917555      -25.8671723490
 C        -1.2255456030        2.9217648611      -26.4567855338
 C        -2.6815540069        3.3097198488      -26.1571249950
 O        -2.8517752245        4.3311347983      -25.4782848192
 C        -3.9424835479        2.5457845133      -26.5833272478
 C        -4.6078228648        2.0810369900      -25.2586212602
 O        -3.9994809685        1.8020286620      -24.2439247812
 C        -6.1945052740        2.0792947129      -25.2172926246
 C        -6.5807179882        1.8860268368      -23.7483344111
 C        -6.1871548446        2.9126699714      -22.6608093689
 O        -5.4937993081        3.9078264109      -22.9414174355
 C        -6.4631856116        2.6332828662      -21.1173592588
 C        -5.0842391875        2.0525748573      -20.5504404819
 O        -3.9903180379        2.4861969596      -20.8478089248
 C        -5.2714995541        0.8249659545      -19.6145172308
 C        -3.9710446031        0.3464027339      -18.9473567011
 C        -3.5385289105        1.1201755913      -17.7120545282
 O        -4.2554027797        2.0075513660      -17.3771524784
 C        -2.3905778283        0.7076748423      -16.7015568312
 C        -2.9736918912       -0.5298418455      -15.9084210898
 O        -2.9274542963       -1.6165715958      -16.4936063124
 C        -3.5716906035       -0.2316252924      -14.5203707660
 C        -3.8085574583       -1.4894493168      -13.7644622516
 C        -2.5062415061       -1.9828458797      -13.1311947291
 O        -1.6603234969       -1.2301751078      -12.7330618607
 C        -2.2770476649       -3.5463843526      -12.9512357743
 C        -2.1331427778       -3.8149625935      -11.2968129301
 O        -1.3185385496       -4.6069938881      -10.9277213150
 C        -3.2530279161       -3.2766086963      -10.4215514323
 C        -3.1354716143       -3.8730953774       -8.8991468587
 C        -3.9532835879       -5.1755095687       -8.7533549188
 O        -4.4000074227       -5.7230913218       -9.7145298780
 C        -4.0320766028       -5.7581556590       -7.2824581848
 C        -2.6330789546       -5.6705210693       -6.5016944957
 O        -2.4928040991       -4.9469325454       -5.5237104928
 C        -1.4968107145       -6.5333508251       -6.9714017746
 C        -0.2973201882       -6.4674504639       -6.0114678652
 C        -0.4988087621       -7.0079222883       -4.6097031939
 O        -1.3598564749       -7.7500923373       -4.1544828030
 C         0.8295690347       -6.6200711009       -3.6932836275
 C         0.7725946591       -5.0478334238       -3.5631455450
 O        -0.2700426065       -4.4089443056       -3.3211300879
 C         2.1681416808       -4.4401896243       -3.7236571168
 C         2.2137617043       -2.9274264352       -3.7733182362
 C         1.5422343519       -2.3331376656       -5.0374209050
 O         0.9474561912       -3.1142228389       -5.7725802084
 C         1.5024588444       -0.7902476507       -5.4290333255
 C         0.1923012426       -0.1534811655       -4.8256631516
 O         0.4242613204        0.1456239839       -3.6594299943
 C        -1.2179714820        0.0706793711       -5.4170412760
 C        -2.2761756792        0.3327672957       -4.3552293788
 C        -2.3045051832       -0.7429586961       -3.2646505324
 O        -2.3964307920       -1.8577213479       -3.7306958272
 C        -2.1342123511       -0.4515426675       -1.7757015490
 C        -3.4072285723       -1.0944432920       -1.0212773149
 O        -3.5967231028       -2.2801990560       -1.1885206175
 C        -4.2782627896       -0.1702148194       -0.1888173525
 C        -5.2128330789       -1.0076082421        0.7871083251
 C        -4.3936428746       -1.6372960018        2.0389669597
 O        -3.2814576266       -1.3387619827        2.4127770150
 C        -5.1376905303       -2.7675464558        2.9235428167
 C        -5.1669836495       -4.1801913091        2.0598469408
 O        -6.2111018689       -4.6467460742        1.5558745199
 C        -3.7354055299       -4.8171577820        1.9457350643
 C        -3.7729549278       -6.0286773418        0.9628562079
 C        -3.7815407058       -5.6693614888       -0.5704741986
 O        -2.8965706226       -4.9895542781       -0.9592502962
 C        -4.9724125064       -6.0354995725       -1.5662832442
 C        -5.4747417048       -4.6925512128       -2.4096708583
 O        -4.7749206105       -4.3110251139       -3.3535855833
 C        -6.5018849996       -3.8329047241       -1.7540824446
 C        -7.4974280705       -3.1860154081       -2.6695805839
 C        -8.1855587647       -1.9404845212       -2.0511160624
 O        -7.7348151918       -1.1612664167       -1.2463565344
 C        -9.7109853876       -1.7637462286       -2.4720330731
 C        -9.8525751776       -1.7566313811       -4.0645477218
 O        -8.8514943669       -1.6117171025       -4.7620719359
 C       -11.2299913190       -1.8894083854       -4.7636368962
 C       -10.5925766046       -2.8557549715       -1.7567479742
 C       -10.2165060958       -0.4047317247       -1.8719672262
 C        -4.3114830435       -6.9273693626       -2.5985567397
 C        -6.0872046791       -6.8076205392       -0.9403037708
 C        -4.4098144079       -2.9758748725        4.3025147456
 C        -6.5990246289       -2.3034165434        3.2750951651
 C        -0.7978611675       -1.2868148188       -1.3061268299
 C        -1.9456435862        1.0739468757       -1.4712371778
 C         2.6660376838        0.1165666778       -5.0744087316
 C         1.3798430658       -0.8777673712       -6.9899720461
 C         0.4538477658       -7.1206084785       -2.2522403979
 C         2.1624364679       -7.5281672569       -3.9974299281
 C        -4.9891996301       -4.7840641431       -6.4510723169
 C        -4.4365829963       -7.1827320713       -7.4728294376
 C        -3.3543651509       -4.5977807315      -13.3049865486
 C        -0.9434099937       -3.9190853197      -13.6488149753
 C        -1.1483693662        0.0356070486      -17.3987915967
 C        -1.9264535735        1.8875868012      -15.9213085674
 C        -6.9597815416        4.0172879378      -20.3243957356
 C        -7.5929800588        1.6944570032      -20.8690269600
 C        -4.7426689980        3.5547621286      -27.4242494126
 C        -3.8215778521        1.2169097609      -27.3750418169
 C         1.1689995253        5.9442852001      -24.0048387508
 C         0.2893468794        4.6749029380      -21.9870123911
 H        -0.2792416230        7.9992939829      -22.6075737307
 H        -2.0582361663        8.2954175254      -23.0453836595
 H        -0.9085861500        8.0598885707      -24.3253774045
 H         0.8955379676        3.7217344368      -26.0014052777
 H        -0.3999134264        4.9821781391      -26.1182717333
 H        -1.0780902758        1.7938265430      -26.2667151192
 H        -1.2296666193        3.0114233166      -27.6143611619
 H        -6.5093169597        1.2382560151      -26.0013523619
 H        -6.5075069332        3.0165846619      -25.6833071387
 H        -6.0868879922        0.9159090067      -23.4460756761
 H        -7.6203311882        1.6194122915      -23.6560000286
 H        -5.6236005610       -0.0215655279      -20.1748159271
 H        -5.9943040972        1.0248500851      -18.7658974692
 H        -3.1744630510        0.4360245940      -19.6998123671
 H        -4.1441338170       -0.7296600848      -18.7793593341
 H        -4.4574567570        0.4028448582      -14.7949525856
 H        -2.9598196383        0.4207041168      -13.9574069660
 H        -4.4032425187       -2.2170669111      -14.3039434560
 H        -4.3827532932       -1.2552785439      -12.9157850357
 H        -4.1835208680       -3.5572932622      -10.8494265615
 H        -3.2704188074       -2.2036526424      -10.1075639351
 H        -3.3890409937       -3.1025304949       -8.1888824142
 H        -2.1090574707       -3.9911400698       -8.8341023154
 H        -1.1301817280       -6.1121749500       -7.9633595422
 H        -1.8292625849       -7.5516918814       -7.2533406845
 H        -0.0209196640       -5.4744699109       -5.9045460666
 H         0.5353627669       -7.0336064490       -6.4492880422
 H         2.6005541251       -4.8748073610       -4.6719896699
 H         2.9198516910       -4.7307885689       -3.0146617856
 H         3.2012364975       -2.4738895240       -3.5932440034
 H         1.6970488335       -2.5293817898       -2.8345062462
 H        -1.4974413841       -0.8347719520       -5.9283524683
 H        -1.1608730779        0.8269202478       -6.0943178746
 H        -3.3073384939        0.3469709139       -4.8130345220
 H        -1.9550838595        1.3491324024       -3.9530054476
 H        -5.0203464389        0.3394144139       -0.9098333376
 H        -3.7364327879        0.5724671244        0.3556418227
 H        -5.7012548911       -1.8094585510        0.2430557573
 H        -5.9095840572       -0.1854494042        1.0563542763
 H        -3.4731392575       -5.1237578611        2.9156247501
 H        -3.1403324539       -4.0597643889        1.4759258330
 H        -4.5566340657       -6.7926399840        1.2092684842
 H        -2.8181196176       -6.5697566243        1.0411272718
 H        -5.9570768468       -3.1277918115       -1.1549743208
 H        -7.0549361671       -4.3725333236       -1.0153559094
 H        -8.2697718754       -4.0161288333       -2.9208842982
 H        -7.0076198291       -3.0242598119       -3.6643490504
 H       -11.1148023277       -2.0609803375       -5.7986789051
 H       -11.8791686534       -0.9859444896       -4.8471173172
 H       -11.9362795266       -2.5178811032       -4.2504028023
 H       -10.5212320608       -3.8288861794       -2.1770619396
 H       -11.6615808825       -2.6091118661       -2.0283457051
 H       -10.4237959652       -2.8753549412       -0.6889476337
 H        -9.9414958796       -0.3291376097       -0.8173509904
 H       -11.3215388730       -0.3868614926       -1.8877756144
 H        -9.9422138222        0.5175700953       -2.2612085431
 H        -5.1335375954       -7.3362281570       -3.1490433768
 H        -3.9711761411       -7.8491938267       -2.1125677093
 H        -3.5913807453       -6.3322191575       -3.2657129786
 H        -7.0903642909       -6.8141020340       -1.4711570045
 H        -6.3839881292       -6.5502114262        0.0893501733
 H        -5.8152503658       -7.8946168910       -0.8806692220
 H        -4.9652181363       -3.5447955135        5.0012211759
 H        -4.0766852212       -1.9559451108        4.6593369639
 H        -3.5512960834       -3.6678450832        4.0911058547
 H        -6.6376455598       -1.3892190568        3.8206147856
 H        -6.9387730540       -3.1039923064        3.9050155333
 H        -7.1911022219       -2.3118702797        2.3743825722
 H         0.0952797231       -1.0532185545       -1.9737163948
 H        -1.0989789866       -2.3606331209       -1.4871705023
 H        -0.5300628461       -1.0445524195       -0.2994296153
 H        -1.1508066493        1.4880432796       -2.0589201553
 H        -1.5953044000        1.4082209941       -0.4391414194
 H        -2.8939451718        1.6254532474       -1.6426594399
 H         2.6348304997        1.1774645546       -5.4318772882
 H         3.6011035917       -0.3027531292       -5.4365760446
 H         2.8067479029        0.3161403879       -4.0467391928
 H         0.4500465730       -1.2935487552       -7.2834855416
 H         2.1200136726       -1.4520462159       -7.5100006952
 H         1.4451292605        0.0815626773       -7.4433079036
 H         0.8676841908       -6.6176479088       -1.3981623891
 H         0.5734388545       -8.2249198875       -2.0174165917
 H        -0.6041144897       -6.9959160995       -2.0816155354
 H         1.9646107705       -8.4606787318       -3.4410029954
 H         3.0723863744       -6.8924435813       -3.8242965930
 H         2.2419409720       -7.7720261132       -5.0613795763
 H        -5.9869175609       -4.6783253471       -6.8559670433
 H        -4.5385194800       -3.8210758859       -6.3509934162
 H        -5.1360844916       -5.1719031014       -5.4612807759
 H        -4.7404779923       -7.6599973844       -6.5406875039
 H        -3.6981056724       -7.7830032705       -7.8673478528
 H        -5.3016278523       -7.1723896772       -8.1123286465
 H        -4.3061322833       -4.1537226103      -12.9867576241
 H        -2.9256304845       -5.5469283345      -13.0214034831
 H        -3.4207254205       -4.5296833539      -14.4580607720
 H        -1.2369791016       -4.1005957371      -14.7263777677
 H        -0.4935684958       -4.8111515074      -13.1701813571
 H        -0.2859901568       -3.0882886188      -13.4999593103
 H        -0.8078907025        0.7564360000      -18.0768367259
 H        -1.4719090218       -0.9145100042      -17.9217124057
 H        -0.3704580984       -0.3297126009      -16.6931709540
 H        -2.6391242817        2.1643930976      -15.1528384983
 H        -1.8772143177        2.7921170848      -16.4728414903
 H        -0.9344469533        1.6785049281      -15.4245704937
 H        -7.8864161960        4.3807563157      -20.7277630852
 H        -6.2018124388        4.7857096766      -20.6035446489
 H        -6.8985692161        3.9625937352      -19.2695303145
 H        -8.6549029115        1.9721039256      -21.2061300324
 H        -7.7574843901        1.5286989870      -19.8214314975
 H        -7.3581438668        0.7260043938      -21.2894792033
 H        -4.9182945512        4.6063929820      -27.0586579533
 H        -5.8097760291        3.1469260270      -27.5127854254
 H        -4.1629602151        3.5882087495      -28.3411614126
 H        -3.2956941664        1.3636120778      -28.3654372364
 H        -4.8112261521        0.8532617015      -27.7513969958
 H        -3.3053742232        0.4421306838      -26.6955859454
 H         1.7710468606        6.4380227797      -23.2723849239
 H         0.7581915613        6.6223953148      -24.7479422276
 H         1.7990984221        5.3202741113      -24.6542064239
 H        -0.5190804834        4.1201248077      -21.6749041379
 H         0.6300172104        5.4091699252      -21.2847172865
 H         1.0798347772        3.9188873335      -22.2642851056
 Na       -2.6001695128       -4.0514662327       -3.0741564149
 Na       -3.1627023803        3.7539988752      -22.7475507942
