232

 C        -0.8963355819        7.7275318427      -23.4421352618
 C        -1.3061655947        6.2831338626      -23.1842544762
 O        -2.3763741437        5.9803666887      -22.7039586331
 C        -0.1556203583        5.2426224953      -23.5312699535
 C        -0.6039395090        3.9655560368      -24.2909423997
 O        -1.0361061852        2.9805238771      -23.7149345244
 C        -0.2574104129        3.8048838877      -25.8141926891
 C        -1.2774825729        2.8851078511      -26.3648769708
 C        -2.6975746125        3.3960872033      -26.0937962868
 O        -2.9012133933        4.4449350576      -25.5150347337
 C        -3.9840931308        2.5805123899      -26.5593458836
 C        -4.6723125698        2.1876499072      -25.2639980285
 O        -3.9931752741        1.6080805192      -24.4006590701
 C        -6.2035788582        2.1977314402      -25.0922006063
 C        -6.5915372434        1.8276089390      -23.6761169335
 C        -6.2237710227        2.9616372202      -22.6169398693
 O        -5.5360305548        3.8966343815      -22.9296800509
 C        -6.5493804203        2.6561091589      -21.1236760503
 C        -5.1325446018        2.0990255499      -20.5206798778
 O        -4.0945985188        2.5055286115      -20.9464265593
 C        -5.1766418448        0.9623016002      -19.5364533119
 C        -3.8172684194        0.3356201681      -19.0014962524
 C        -3.5035871292        1.1889256291      -17.7810911603
 O        -4.3189300764        1.9578268577      -17.3037370740
 C        -2.2456673523        0.7534962995      -16.7979438915
 C        -2.9192460512       -0.4065616745      -15.9556603694
 O        -3.0209312701       -1.5426841146      -16.3597071591
 C        -3.5375115647       -0.1195563780      -14.5468172272
 C        -3.8356807788       -1.4572549586      -13.8062491948
 C        -2.5507842267       -2.0238494626      -13.1090433472
 O        -1.7005648666       -1.1590016352      -12.7526219656
 C        -2.2864014241       -3.5757505417      -12.9293446030
 C        -2.2132738289       -3.8576139263      -11.3661812986
 O        -1.3357278664       -4.6030497509      -10.9226952121
 C        -3.2331999103       -3.2436476847      -10.4330525946
 C        -3.0536877304       -3.7888572854       -8.8831379749
 C        -3.8749786214       -5.1135327302       -8.7620743107
 O        -4.4843951669       -5.7049389740       -9.6526561923
 C        -3.9902054073       -5.6465865689       -7.3122772951
 C        -2.5960075675       -5.6345225553       -6.5996288740
 O        -2.4584526551       -4.8821589107       -5.6281938461
 C        -1.3275137743       -6.5258255454       -7.0404834451
 C        -0.2251358128       -6.4153547244       -5.9992545058
 C        -0.3389593302       -7.2157560499       -4.5719976929
 O        -1.2911852823       -7.7904836657       -4.2033159283
 C         0.7585826817       -6.7244268552       -3.5766547794
 C         0.7947230878       -5.1647972604       -3.5895161443
 O        -0.1854092974       -4.5238561535       -3.3448296602
 C         2.1623848171       -4.4044475822       -3.5609151510
 C         2.1737495434       -2.7691717748       -3.7449775527
 C         1.6254990467       -2.2870933966       -5.1592212347
 O         1.0375123849       -3.0847059897       -5.8661501713
 C         1.5614877675       -0.7519331411       -5.5173337777
 C         0.2031098840       -0.2322048790       -4.7699975672
 O         0.3336117574        0.1540703152       -3.6030956293
 C        -1.1340868498        0.0120083485       -5.4422287868
 C        -2.1962227293        0.3236027995       -4.3156198339
 C        -2.2638245710       -0.8083077469       -3.3107394187
 O        -2.4555322630       -1.9650325678       -3.6588605936
 C        -2.0836389962       -0.4779391073       -1.7570012466
 C        -3.2731766631       -1.1019736058       -1.0572712667
 O        -3.5082661810       -2.3044703592       -1.1524948736
 C        -4.2575633261       -0.2493077715       -0.2245123312
 C        -5.1096886588       -1.0537304798        0.8031946207
 C        -4.4460778968       -1.7022823362        2.0394741269
 O        -3.3253034481       -1.3997637122        2.4056029665
 C        -5.2283391144       -2.8738513542        2.8943876339
 C        -5.1488643554       -4.1003023473        1.9994621944
 O        -6.1540983537       -4.5693409210        1.5734350945
 C        -3.8123083513       -4.7799818868        1.7360633263
 C        -3.8919775399       -6.0956860488        0.8904143695
 C        -3.9076556120       -5.6554961034       -0.6102976610
 O        -2.9055633772       -5.0684592080       -1.0484911894
 C        -4.9628895071       -6.1698264682       -1.6044814331
 C        -5.3374803937       -4.7288335477       -2.3146544702
 O        -4.7739498985       -4.2878961044       -3.2097353725
 C        -6.5458556808       -3.8848862170       -1.6766433162
 C        -7.5626754003       -3.1286583425       -2.6780251552
 C        -8.2828652629       -1.9306489232       -2.0342770626
 O        -7.6785882632       -1.1564352562       -1.2788138797
 C        -9.8081168820       -1.7242541098       -2.4697477566
 C        -9.8666453845       -1.7654099421       -4.0075590981
 O        -8.8706679322       -1.6782307237       -4.7050014287
 C       -11.2406016020       -1.8970934804       -4.6308446544
 C       -10.5648841413       -2.8447328500       -1.8461211783
 C       -10.2300688472       -0.3531789452       -1.9439389529
 C        -4.1524979173       -7.1119111643       -2.5492516262
 C        -6.1601612635       -6.8778219808       -0.9467845148
 C        -4.4307490052       -3.0226705399        4.2032942045
 C        -6.6586012539       -2.4305075401        3.3560182118
 C        -0.8483943588       -1.1903972318       -1.2162542688
 C        -1.9710931340        0.9839418171       -1.3461852169
 C         2.6734877405        0.1285016136       -4.9838049095
 C         1.4709129470       -0.6800518606       -7.0853877931
 C         0.4962319830       -7.0076105720       -2.0175463846
 C         2.1236351316       -7.3501855764       -3.9285535296
 C        -5.0129781188       -4.7360467255       -6.5444297652
 C        -4.4385260826       -7.1435699496       -7.3625245297
 C        -3.3983982789       -4.5277201608      -13.3647838287
 C        -1.0261374551       -4.0000287792      -13.7315220856
 C        -0.9571014131        0.0805654024      -17.4693978240
 C        -1.8034585182        1.9245403917      -15.9021397756
 C        -6.9849351738        3.8683393923      -20.2411326683
 C        -7.7430551291        1.6442478244      -20.9446272632
 C        -4.7664778003        3.5446046235      -27.4683170680
 C        -3.9189332634        1.1464604151      -27.2622604801
 C         1.1949861525        5.7904174419      -24.1170198574
 C         0.1526886461        4.7575121861      -22.0949578955
 H        -0.1461610242        7.9062838665      -22.6529422995
 H        -1.8450354776        8.2782668973      -23.2955396363
 H        -0.5852211293        7.9289265356      -24.4621305625
 H         0.7163379212        3.3550612642      -25.8862255883
 H        -0.2621408523        4.8463472120      -26.1712899516
 H        -1.2330244605        1.8882260538      -25.7932324885
 H        -1.1350106493        2.6378196098      -27.3786876985
 H        -6.5265967631        1.4428456229      -25.9425748821
 H        -6.6017247805        3.1846397346      -25.4202627381
 H        -6.1102944641        0.9214157698      -23.3972893562
 H        -7.6009664303        1.5532317543      -23.6696653607
 H        -5.8714631084        0.1356659624      -19.9467880008
 H        -5.6198460782        1.2849359478      -18.5518671252
 H        -2.9606133205        0.3498066972      -19.6563432234
 H        -3.9986479960       -0.7062332209      -18.7436283975
 H        -4.4678717771        0.4752765856      -14.7080806775
 H        -2.9055100358        0.5090814401      -13.9287150121
 H        -4.3789636272       -2.1588616869      -14.4360370223
 H        -4.5603932630       -1.1521837210      -13.0123724573
 H        -4.2917939387       -3.4946740787      -10.7918345295
 H        -3.1082997537       -2.1070218488      -10.2559274979
 H        -3.4017057616       -3.0414588809       -8.1220660169
 H        -2.0384629273       -3.8158592502       -8.8038887505
 H        -0.8313845497       -6.3137625720       -8.0009390555
 H        -1.7205528393       -7.5757983229       -7.1853412448
 H        -0.1803020799       -5.3503905771       -5.7522091622
 H         0.6725710858       -6.6913640211       -6.4883818604
 H         2.8938028038       -4.7837396086       -4.2245907701
 H         2.6909405027       -4.5843065781       -2.6536911943
 H         3.2250936827       -2.4262839726       -3.6790144712
 H         1.7873678511       -2.1523324849       -2.9160016206
 H        -1.4713056558       -0.8573486191       -5.9759817797
 H        -0.9469612126        0.7938436135       -6.1523167545
 H        -3.2794239932        0.4320700871       -4.7317416434
 H        -1.8138328709        1.2492724571       -3.8109422439
 H        -5.0606078885        0.2066067661       -0.7756513325
 H        -3.6974424399        0.5293128935        0.3025129850
 H        -5.5690619567       -1.8812276447        0.2614817736
 H        -5.8320781148       -0.3156476888        0.9896416654
 H        -3.5925443491       -5.1283339032        2.7938051477
 H        -3.1733593950       -4.0238096829        1.2712959662
 H        -4.7836592597       -6.6992549724        1.2381462590
 H        -2.9563950637       -6.7175622924        0.9797085596
 H        -6.0287961787       -3.0901482939       -1.0967416352
 H        -7.1632210363       -4.3542682133       -0.8534036213
 H        -8.3025510464       -3.8667834623       -3.0524400893
 H        -6.9839342677       -2.8980574335       -3.5281840651
 H       -11.2904974043       -2.4723756173       -5.5328754245
 H       -11.7291854749       -1.0791339728       -4.9756506957
 H       -11.9282210347       -2.1764937995       -3.8154081105
 H       -10.6886782380       -3.6760579749       -2.6169401271
 H       -11.5313258890       -2.6128808312       -1.6005028703
 H       -10.0088388691       -3.2420419061       -0.9971145080
 H       -10.0536769773       -0.3470424545       -0.8967526967
 H       -11.2313807393       -0.1228549743       -2.0744415442
 H        -9.6780922625        0.4761144810       -2.2989069134
 H        -4.9351797869       -7.6513099509       -3.0734806065
 H        -3.7949644804       -7.9128692660       -1.9513160677
 H        -3.4448707258       -6.5808748219       -3.2209051753
 H        -7.0523348985       -7.0537317919       -1.6428172064
 H        -6.5937878526       -6.4383017151       -0.1010576978
 H        -5.8530189290       -7.9143652046       -0.6329017877
 H        -4.8854519556       -3.6843974917        4.9436339429
 H        -4.2221611698       -2.0128101308        4.5489357372
 H        -3.5206323632       -3.5173093874        3.9397450324
 H        -6.5415263075       -1.6516125854        4.0747845546
 H        -6.9999581512       -3.3071354018        3.8580368190
 H        -7.3330685746       -2.1559414217        2.5180737243
 H        -0.0603828705       -1.2409382522       -1.9964399490
 H        -1.1741423559       -2.2269063414       -1.0025278399
 H        -0.4251749738       -0.6585729129       -0.3426282308
 H        -0.9828310008        1.4000525423       -1.6505362922
 H        -1.9647980030        1.2589674537       -0.2522109898
 H        -2.7953815652        1.6089692158       -1.7833939353
 H         2.7162856902        1.1516404070       -5.3378401690
 H         3.6671985841       -0.2171116389       -5.0593489396
 H         2.5124528040        0.3101244467       -3.9276925067
 H         0.6413830641       -1.1971729971       -7.5251358779
 H         2.3116128296       -1.0333719024       -7.6476574297
 H         1.4107152558        0.3441694964       -7.3709824010
 H         0.9892166358       -6.3411463982       -1.3650863817
 H         0.5664694445       -7.9785777045       -1.5671750815
 H        -0.5407781762       -6.7094083932       -1.7995208215
 H         2.1191165088       -8.4096252349       -3.7309313425
 H         2.9176523540       -6.7462913300       -3.5943133127
 H         2.1594078961       -7.1697894853       -5.0203915777
 H        -6.0049238995       -4.6975077089       -7.0851540393
 H        -4.7209437774       -3.6850603727       -6.2807466899
 H        -5.1969360011       -5.2249112004       -5.6430908477
 H        -4.9602203290       -7.4905378375       -6.5390874734
 H        -3.6120248885       -7.8158255099       -7.4181908746
 H        -5.0443077587       -7.3139890012       -8.2331791031
 H        -4.1064326110       -4.6281531219      -12.5433469390
 H        -2.9035976333       -5.3694719098      -13.8011774257
 H        -3.9979332329       -4.0005130774      -14.1925470354
 H        -1.2434008794       -3.5642935218      -14.6769235605
 H        -1.0495373350       -5.0645003187      -13.9098999938
 H        -0.0651951549       -3.6789573683      -13.2722706341
 H        -0.5814770696        0.6769943705      -18.3353357362
 H        -1.1860687998       -0.9407650929      -17.7345285446
 H        -0.2002255256       -0.0811158978      -16.6390314719
 H        -2.5879750858        2.1429429656      -15.1507184865
 H        -1.7861655132        2.8603877046      -16.4304964992
 H        -0.9193888032        1.7127263160      -15.3894355992
 H        -7.8975162740        4.4064134895      -20.6809366415
 H        -6.1298615505        4.6145186349      -20.2871336345
 H        -7.0666928098        3.6252736034      -19.2051755856
 H        -8.6830112101        1.9359811000      -21.3538949815
 H        -8.0134419735        1.4219578465      -19.9056251096
 H        -7.4754586998        0.7075940570      -21.3826498650
 H        -5.1261949479        4.3800935853      -26.7955735928
 H        -5.7760149509        3.1251581380      -27.7681962884
 H        -4.0811747455        3.9869955583      -28.2345374697
 H        -3.5038348431        1.0921849012      -28.3393335997
 H        -5.0267865931        0.8923252168      -27.5198474570
 H        -3.5845726680        0.3782905578      -26.5581796944
 H         1.7352111061        6.4357006387      -23.3698651136
 H         0.9575961317        6.4018248745      -25.0060784872
 H         1.7897523370        5.0422431493      -24.5139112414
 H        -0.7212899431        4.1514371978      -21.8289448266
 H         0.2714120400        5.6491795376      -21.4578984855
 H         1.0544180441        4.0899819443      -22.0740276616
 Na       -2.5114423324       -4.0641996252       -3.0651064701
 Na       -3.1231102332        3.6860849204      -22.9137853283
