232

 C        -0.8052872865        7.4425310958      -24.2642602505
 C        -1.4373778356        6.1313603518      -23.6680012038
 O        -2.5661393759        6.0358799335      -23.2701862653
 C        -0.2452697202        4.9325438959      -23.5694818540
 C        -0.8236492068        3.6363751423      -24.0125503293
 O        -1.5002164981        2.9578174758      -23.2102386653
 C        -0.6810638414        3.1907882717      -25.3940541533
 C        -1.8757622513        2.3132617670      -25.8590134746
 C        -3.1175639875        3.1784196438      -26.1365934016
 O        -3.0954516848        4.3318940605      -25.7772558542
 C        -4.5288043142        2.6362012310      -26.6236107027
 C        -5.2539050516        2.3191826887      -25.3212081825
 O        -4.7352807065        1.7806970677      -24.3401568538
 C        -6.7313959691        2.5466240191      -25.1793623100
 C        -7.0950759055        2.0551870099      -23.7814118091
 C        -6.5494189774        3.0586711099      -22.7105876900
 O        -6.2649199902        4.2185945988      -22.9882556325
 C        -6.4679460799        2.4524822762      -21.1886366622
 C        -5.0608834320        2.0169960468      -20.7637732071
 O        -4.0901738586        2.3839992415      -21.3835704277
 C        -4.8706225233        1.3125792049      -19.3690456261
 C        -3.4894848949        0.9028625001      -19.0554178087
 C        -3.1442112573        1.4817615251      -17.6567566799
 O        -3.8454867036        2.3260791393      -17.1046911383
 C        -1.8533113482        1.0571574474      -16.7481947898
 C        -2.4248549260       -0.1566519371      -16.0452772359
 O        -2.4046950880       -1.2449803202      -16.5927032765
 C        -3.0431361456        0.0649978822      -14.5750853986
 C        -3.6693474740       -1.2322071247      -13.9686136999
 C        -2.7759736018       -1.9477745154      -12.9461807669
 O        -1.8412849188       -1.2720640994      -12.4609916904
 C        -2.8610619529       -3.5044648619      -12.8125420356
 C        -2.2053851309       -4.0004466571      -11.3872176783
 O        -1.3037065269       -4.8057905638      -11.3567119769
 C        -2.6623736115       -3.0501513265      -10.2137788637
 C        -2.6779371101       -3.6552971259       -8.7997413157
 C        -3.4732912740       -4.9763136432       -8.6572536319
 O        -4.1066399168       -5.5796568176       -9.5316571713
 C        -3.8080620230       -5.3887169626       -7.0752038692
 C        -2.4992619007       -5.3155475794       -6.2755240372
 O        -2.4961912268       -4.7016828572       -5.1964274470
 C        -1.1992350783       -5.9263281065       -6.7963710081
 C         0.0333109979       -5.9782601496       -5.8095230024
 C        -0.1456563110       -6.7324069146       -4.5251880570
 O        -0.7670387722       -7.7331428023       -4.4346543968
 C         0.7778806405       -6.2713481576       -3.2282250495
 C         0.9992785649       -4.6989672030       -3.1370203480
 O        -0.0157907827       -4.0427511675       -3.0942250413
 C         2.3796536254       -3.9919803456       -3.6388431490
 C         2.3299078370       -2.4770057940       -3.7239660959
 C         1.9991093805       -1.9938388540       -5.1426757928
 O         1.9627873066       -2.7606248981       -6.0569342044
 C         1.8570545008       -0.3435945320       -5.4529610732
 C         0.6481322824        0.0133692868       -4.5203958188
 O         0.8164416035        0.4196069640       -3.3604510065
 C        -0.7707467837        0.0803602207       -5.0988661416
 C        -1.8159478597        0.2506827726       -4.0272752339
 C        -2.0055642019       -0.9943825079       -3.1679861162
 O        -2.2740300196       -2.0442096070       -3.7446299528
 C        -2.0419393881       -0.8493618643       -1.6337921924
 C        -3.3494478896       -1.4461180890       -1.0785505776
 O        -3.4989050513       -2.6807586074       -1.1287847631
 C        -4.2878491834       -0.5050851820       -0.3463668679
 C        -5.1825387383       -1.2940910154        0.6666875016
 C        -4.4447498562       -1.8317178995        1.8553440466
 O        -3.3004071955       -1.5313447507        2.1044375496
 C        -5.1360944378       -3.0129298785        2.7085353472
 C        -5.1279808879       -4.2405692721        1.7058258127
 O        -6.0659354388       -4.6679702106        1.0346004226
 C        -3.9153593515       -5.1686714769        1.6652531022
 C        -4.2486077090       -6.5134821206        0.8865151781
 C        -3.9775375550       -6.1457087391       -0.7129807228
 O        -2.9073283706       -5.7919875399       -0.9823159974
 C        -5.1633473041       -6.5060562742       -1.7939709956
 C        -5.6636569357       -5.1021798480       -2.3375034421
 O        -4.9458722067       -4.3565017080       -2.9503912652
 C        -7.1349515427       -4.7117276096       -2.0048480816
 C        -7.6528717195       -3.5772234844       -2.8876438561
 C        -8.1110456675       -2.3347414549       -2.1184546021
 O        -7.4433243909       -1.5604113999       -1.4276415528
 C        -9.6034964185       -1.9637013674       -2.4440596636
 C        -9.9166380550       -1.8880657909       -3.9379039940
 O        -9.0415417484       -1.9998084684       -4.7618864225
 C       -11.3036301355       -1.4941124394       -4.3168261632
 C       -10.4635564775       -2.8750836514       -1.6002337371
 C        -9.8915468076       -0.4973751230       -1.8798545105
 C        -4.4520986242       -7.2834475010       -2.9560916510
 C        -6.3301799320       -7.3137810532       -0.9571431179
 C        -4.3914533709       -3.3819400135        4.0153182889
 C        -6.6600326082       -2.7590395465        3.0541992620
 C        -0.9426147765       -1.7189211433       -0.9795394002
 C        -1.8506268969        0.5738354715       -1.0636389291
 C         3.0942556206        0.5331918958       -5.1106184615
 C         1.6144669303       -0.2693911607       -6.9961147738
 C         0.0410161288       -6.8390115923       -1.9023177197
 C         2.0740878694       -7.0480683791       -3.6349666185
 C        -4.8282284425       -4.3690468870       -6.5106563491
 C        -4.1800126077       -6.8533970289       -7.0411215828
 C        -4.2953323566       -4.0399331535      -12.9349136555
 C        -2.0462641726       -4.1144728349      -13.9717533731
 C        -0.5741762598        0.6012020716      -17.6002768397
 C        -1.4520312736        2.3399876704      -15.9230879774
 C        -6.9580074709        3.6626168728      -20.3056676967
 C        -7.5335562540        1.3393460437      -21.0115212126
 C        -5.1919232128        3.5699530640      -27.6398603665
 C        -4.3904052408        1.2019516180      -27.2352654268
 C         1.1417079304        5.1973814768      -24.1869430736
 C        -0.0655613654        4.9043478458      -21.9813825570
 H         0.0140822186        7.8303157788      -23.6187698289
 H        -1.6501082595        8.1200153621      -24.3455713166
 H        -0.4829785360        7.0910947748      -25.2176117038
 H         0.1285103866        2.4612766045      -25.3338626487
 H        -0.3795110945        4.0686012088      -25.9572984356
 H        -2.1884158734        1.6767963622      -24.9443982083
 H        -1.4946163294        1.7310254729      -26.6742998290
 H        -7.3009697066        1.9809127935      -25.9580700061
 H        -6.8818612296        3.6340691498      -25.3692860318
 H        -6.6974863860        0.9974923937      -23.6191585511
 H        -8.2064296334        1.9663274254      -23.7541022785
 H        -5.5308119260        0.5562068217      -19.0871460993
 H        -5.1746031529        2.1006692134      -18.6728797123
 H        -2.7366295297        1.5005862253      -19.6259667341
 H        -3.1242119182       -0.1301273973      -19.3071481122
 H        -3.8196696505        0.8862634985      -14.7145468456
 H        -2.2152367673        0.3192777757      -13.9310395775
 H        -3.9073216679       -1.9080400990      -14.8533252948
 H        -4.6203346154       -1.0585225712      -13.4299084933
 H        -3.6302714774       -2.7002632479      -10.4758788502
 H        -1.9372686556       -2.2675110984      -10.1641801359
 H        -3.1421637518       -2.8666022627       -8.0181931575
 H        -1.6848340006       -3.7008592471       -8.5024558244
 H        -0.8727083642       -5.3631186756       -7.6573272133
 H        -1.4087302662       -6.8500881197       -7.2800351713
 H         0.4549103822       -4.9821954760       -5.5782581404
 H         0.8479068565       -6.6263501410       -6.3115305489
 H         2.4684284179       -4.3736680202       -4.7373232694
 H         3.3504464593       -4.2636909566       -3.1604792738
 H         3.3073668817       -2.0662121105       -3.6070646515
 H         1.7560126746       -2.0443586971       -2.8990347646
 H        -1.0301170118       -0.9670185246       -5.5259370267
 H        -0.8061216263        0.7483821225       -5.9797254801
 H        -2.7428898617        0.5873647043       -4.3987021989
 H        -1.5286309773        1.0703892031       -3.4364465865
 H        -4.8549770655       -0.0585702186       -1.2271458051
 H        -3.8899168340        0.3348676324        0.1857208948
 H        -5.7136174657       -2.1202626041        0.1435227222
 H        -6.0688408822       -0.6562333687        0.9707704516
 H        -3.7347928431       -5.4310348817        2.7270789769
 H        -3.1207924006       -4.6238195644        1.2086971508
 H        -5.3067543837       -6.7321263764        1.0645198302
 H        -3.5393891404       -7.2373068365        1.1639293426
 H        -7.3509237064       -4.4754114207       -0.9888030446
 H        -7.7955112806       -5.5406189594       -2.2652463641
 H        -8.5718893391       -4.0259509459       -3.4062692826
 H        -6.9189056682       -3.3132665958       -3.6262559916
 H       -11.8322919936       -0.9239992444       -3.4533680356
 H       -11.9620517446       -2.3018816463       -4.4877291970
 H       -11.4290716105       -0.8407976509       -5.2563294310
 H       -10.0710537608       -3.9431256638       -1.7027605291
 H       -11.4535017605       -2.8322518209       -1.8628770771
 H       -10.4020037734       -2.6200060142       -0.5418807833
 H        -9.3545870818       -0.2807315999       -0.9486143535
 H       -10.9181146956       -0.5171481016       -1.5743427049
 H        -9.8031732997        0.3476307555       -2.5884727939
 H        -5.2381396808       -7.6758274786       -3.5581693376
 H        -3.8696054975       -7.9944395851       -2.4606972992
 H        -3.7193106579       -6.6720138337       -3.4416757310
 H        -7.1455700262       -7.6744521051       -1.5989928389
 H        -6.7003326072       -6.6358799195       -0.2676380520
 H        -5.8784064796       -8.1686301950       -0.5386088286
 H        -5.0400944347       -4.0171340144        4.6144294896
 H        -4.1546272215       -2.5356683925        4.6284972542
 H        -3.4729959829       -3.7796067659        3.7382578575
 H        -6.5184706988       -1.8752269349        3.6734061202
 H        -7.0628235435       -3.5757034200        3.6575731188
 H        -7.3637837030       -2.5533379551        2.1884304080
 H        -0.0337707214       -1.6810059030       -1.5691599166
 H        -1.3593522822       -2.6943205662       -0.8612279825
 H        -0.7990668055       -1.3686646408        0.0168640108
 H        -0.9062789356        0.9264841401       -1.4059658484
 H        -1.8220860699        0.4621649081        0.0143185735
 H        -2.5428788209        1.3197891431       -1.3767313135
 H         2.8749585131        1.5897459992       -5.3120814911
 H         3.9568258158        0.2971937259       -5.6832019827
 H         3.5087018483        0.4333833233       -4.1205127498
 H         0.7625814133       -0.8723376023       -7.3642165934
 H         2.5347635889       -0.5241967955       -7.5882085640
 H         1.2952036313        0.7364985096       -7.3345038292
 H         0.1339780991       -6.4258581933       -0.9469890183
 H         0.2711261259       -7.8719837679       -1.6691884617
 H        -1.0520258928       -6.8081156240       -2.0784473492
 H         2.0737007254       -8.0767857922       -3.4194700646
 H         2.9139637574       -6.7774363196       -3.1008538131
 H         2.1688426193       -6.9345745324       -4.7171102809
 H        -5.5651676817       -4.2727894113       -7.3793806232
 H        -4.4974058685       -3.3154188729       -6.2742333546
 H        -5.2743957977       -4.7925214225       -5.6649976017
 H        -4.4640620372       -7.2452381758       -6.0712114681
 H        -3.3584461548       -7.4318174093       -7.5051367061
 H        -4.9967995154       -7.0876443881       -7.7761370954
 H        -4.6538749187       -3.9506007650      -13.9692536885
 H        -4.9776873981       -3.4326107884      -12.3763215827
 H        -4.3534475302       -5.0156320230      -12.4211796702
 H        -2.5524627907       -4.9831881942      -14.3611973569
 H        -1.0891865406       -4.5059962880      -13.7105713645
 H        -1.9308961612       -3.4159204099      -14.8735461560
 H        -0.2244192739        1.3884599276      -18.2410383040
 H        -0.7749373332       -0.2762882825      -18.1517170847
 H         0.2089479007        0.3846930557      -16.8189494951
 H        -1.9506502519        2.2578776511      -14.8932578741
 H        -1.5923791150        3.2660282505      -16.5127290505
 H        -0.3958388176        2.1989133209      -15.8286438327
 H        -8.0612464387        3.8068682398      -20.4762903721
 H        -6.3841561992        4.5835868159      -20.5065274935
 H        -6.9627399811        3.3967222853      -19.2483387721
 H        -8.4785600342        1.5888674844      -21.4370015409
 H        -7.6248527830        1.1728995686      -19.9307362314
 H        -7.2777377858        0.3864400100      -21.3914354271
 H        -5.4920301160        4.4569468614      -27.1903744376
 H        -5.9526655156        3.0452847116      -28.1449738670
 H        -4.6368017905        3.8388426884      -28.4761315718
 H        -3.7895744888        1.2786744495      -28.1148455284
 H        -5.4259323597        0.9074137212      -27.4314770005
 H        -3.9522059910        0.5342444575      -26.5742786942
 H         1.6382374820        6.2111492162      -24.1172568733
 H         1.0714911893        5.0780575589      -25.3008631518
 H         1.8366301824        4.5261338977      -23.7819841953
 H        -0.8710441348        4.2518061734      -21.6325174819
 H        -0.1124989412        5.9212754053      -21.5977742773
 H         0.9210490170        4.4723067922      -21.7886193669
 Na       -2.4138737515       -4.1054380227       -2.8505225187
 Na       -3.7045179205        3.8472938769      -23.2397648422
