232

 C       -20.6134449753       -7.7434716186       -4.4982299228
 C       -20.5897445858       -6.3977355747       -3.7156897507
 O       -19.8951776830       -6.3581796994       -2.7354012461
 C       -21.2881995748       -5.1287446326       -4.2495078367
 C       -20.0430949524       -4.2436369116       -4.7951492275
 O       -19.6452568394       -3.3266107470       -4.0991836905
 C       -19.5814277396       -4.3162724392       -6.2622315888
 C       -17.9805315582       -4.2782873511       -6.3564455344
 C       -17.3018370081       -3.9360276549       -5.0649436295
 O       -17.3063646802       -4.7786468953       -4.1602268259
 C       -16.6491475535       -2.4923606272       -4.7368633197
 C       -16.4153565180       -2.4346796724       -3.1812286805
 O       -17.2916848215       -2.0949675124       -2.4135810224
 C       -15.1250151169       -3.1139914054       -2.6368164636
 C       -15.2182765287       -3.2263824738       -1.1030907936
 C       -15.6755563740       -4.6301092757       -0.6263397335
 O       -16.7557171329       -5.0519306021       -0.9817090000
 C       -14.7868289837       -5.4577009604        0.2905122800
 C       -13.3285066545       -5.8010564947       -0.4750444301
 O       -12.5589536015       -4.8685932994       -0.5864207262
 C       -13.0799778295       -7.2187910798       -1.1205408609
 C       -11.6600858967       -7.3173547243       -1.7233757199
 C       -11.5284829658       -8.3469516501       -2.9649536107
 O       -12.2491646728       -8.2211501443       -3.9279301240
 C       -10.4972760821       -9.6022999925       -2.8994247444
 C        -8.9644522156       -8.9044784386       -2.6719154575
 O        -8.4876419244       -8.9028283224       -1.5623966580
 C        -8.3955320116       -8.0555024389       -3.8253203884
 C        -7.3465820816       -7.0799421432       -3.3049242622
 C        -7.6147545195       -5.6089407733       -3.7116154568
 O        -8.6638406118       -5.0739530900       -3.7740508225
 C        -6.4116297022       -4.7175507252       -4.0959699143
 C        -5.7424538318       -5.2567395141       -5.4296534625
 O        -5.6177586946       -6.4523488276       -5.6402734245
 C        -5.0403270089       -4.2842838927       -6.4556889421
 C        -4.1388796829       -5.1037386180       -7.3603900406
 C        -3.3354014273       -4.1841236307       -8.3524733079
 O        -3.8660186623       -3.4108428463       -9.0526322195
 C        -1.7964059102       -4.0647982644       -8.1708200329
 C        -1.0892630575       -5.0842430390       -9.2285201017
 O        -0.2096566049       -5.8880203866       -8.9599505693
 C        -1.7072988768       -5.0150294458      -10.7061905929
 C        -0.6763697894       -5.6472601744      -11.6458061733
 C         0.3959006755       -4.6974751682      -12.0953020661
 O         0.0944390563       -3.5189102323      -12.2370417201
 C         1.7997893392       -5.2698566367      -12.5056997863
 C         2.6698359442       -4.2665112870      -13.3096279242
 O         3.5373850063       -4.6782043148      -14.0455256706
 C         2.3764119339       -2.7790423992      -13.2327042816
 C         3.5418120665       -1.8599279572      -13.7954350923
 C         3.3630670200       -0.4540063984      -13.0638684933
 O         2.3172498840       -0.0535094371      -12.7377723687
 C         4.6713567853        0.3767257025      -12.8107371285
 C         4.8941959918        1.3623039559      -13.9947273621
 O         6.0158739459        1.3045433953      -14.4938767524
 C         3.8050727092        2.3277636704      -14.5059648104
 C         3.6639576605        3.8619791914      -13.9143552086
 C         5.0647480022        4.3662616193      -13.6063061254
 O         6.0508812917        3.9234917950      -14.2498239516
 C         5.4462509165        5.4145186634      -12.6053447991
 C         5.9965017466        6.6499812777      -13.5107546434
 O         5.2773438597        7.5796436519      -13.8375760523
 C         7.4038911770        6.6090871625      -14.0498506948
 C         7.6077884687        7.3544326080      -15.3986498274
 C         6.9645252615        6.7223790322      -16.6056763930
 O         6.4693425046        5.6402878778      -16.4931438392
 C         7.0035421274        7.3147924427      -18.1580883177
 C         8.3789848876        6.9478723276      -18.8146616533
 O         9.3369234915        6.7320775936      -18.1306247003
 C         8.6801489675        7.3165450447      -20.2734725405
 C         9.4967313151        6.1798105313      -20.8516375690
 C         8.7469588368        4.8827802316      -20.9909614692
 O         7.7891951798        4.6562901934      -20.2667180188
 C         9.1489186488        3.7085115970      -22.0464715195
 C         8.6147198934        2.4122583226      -21.4445630664
 O         7.6056438428        1.8458110565      -21.8094552688
 C         9.5998126281        1.7819630190      -20.4873290315
 C         9.0022734025        0.6910677393      -19.6137618051
 C         7.9524233133        1.1786885296      -18.5700090555
 O         8.2213978530        2.0586604127      -17.7641273577
 C         6.6765742379        0.3124885107      -18.3716449237
 C         5.4605177348        1.2567473589      -18.4872904161
 O         5.2923447861        2.0638743709      -17.5465959825
 C         4.4051000189        1.1419929436      -19.4786454053
 C         6.4170649016       -0.7906600973      -19.4789229486
 C         6.6404314325       -0.3141074761      -16.9791410575
 C         8.4236026852        3.9365281259      -23.3608153760
 C        10.6482984430        3.6630915888      -22.2376323117
 C         5.8934674436        6.6928479566      -18.9542448141
 C         6.8994222063        8.8525164296      -18.0720775619
 C         4.1356575839        6.0396284593      -11.9315413399
 C         6.4726025059        5.0202123343      -11.5547019754
 C         4.4609455071        1.3555292292      -11.4712336305
 C         5.8573675808       -0.5230108973      -12.5066640316
 C         2.5913432478       -5.4908453420      -11.1916432102
 C         1.6763401628       -6.6248095130      -13.1886363644
 C        -1.3618298080       -2.6665530902       -8.8128387909
 C        -1.4164950654       -4.2941703337       -6.7376096997
 C        -6.8467674743       -3.3119968590       -4.2382530877
 C        -5.2122509149       -4.9521252211       -3.1095513590
 C       -10.6626558016      -10.6196854504       -1.6767358681
 C       -10.6754814041      -10.2978450827       -4.2462381877
 C       -14.2902489060       -4.5076784375        1.5054879237
 C       -15.3999395447       -6.7661646709        0.8370452997
 C       -15.3511540515       -2.3232882927       -5.5804361620
 C       -17.5571952001       -1.2833675509       -5.1089648173
 C       -22.2669525479       -5.4225567922       -5.3640836678
 C       -22.0441125449       -4.3360231063       -3.1724923549
 H       -21.4099957216       -7.7609683711       -5.1665866969
 H       -20.7199893645       -8.5391290869       -3.8347462136
 H       -19.6531288133       -7.7888116889       -5.0403595147
 H       -20.0316505580       -3.4425261984       -6.7075706141
 H       -19.9509008923       -5.2606667742       -6.7124665348
 H       -17.6392240529       -3.6975434109       -7.2275897078
 H       -17.6518711553       -5.2751136317       -6.6786625459
 H       -14.2626376694       -2.5270151517       -2.8975538868
 H       -14.9442259098       -4.1544389462       -2.9397583875
 H       -16.0026934324       -2.5229289717       -0.7694775452
 H       -14.3057803196       -2.9981903586       -0.5938041011
 H       -13.8811607745       -7.3774228299       -1.8799167946
 H       -13.0466355405       -8.0343259071       -0.4068264792
 H       -11.0048907270       -7.5930773543       -0.8946537377
 H       -11.3777150544       -6.3110603390       -2.0196389806
 H        -9.1939732329       -7.5464528013       -4.4431535337
 H        -7.9859546538       -8.7766178633       -4.5738125976
 H        -6.3374835413       -7.3965941743       -3.7530334885
 H        -7.2031766448       -7.1518810556       -2.2230648343
 H        -4.5982505156       -3.3956644007       -6.0343397513
 H        -5.8257781373       -3.9252712824       -7.1053370979
 H        -4.7685405959       -5.7745787791       -7.9421193308
 H        -3.5553986767       -5.7497153137       -6.7659938294
 H        -1.8769889720       -3.9136549884      -11.0325681679
 H        -2.6814889051       -5.4169707508      -10.8226719573
 H        -1.0693881821       -6.0060614049      -12.5776958926
 H        -0.3115409248       -6.5506373573      -11.1626073906
 H         2.1409706325       -2.5303803010      -12.2347896868
 H         1.4754270656       -2.4897454037      -13.7170412660
 H         3.2986342819       -1.8113149260      -14.8519335787
 H         4.5748434762       -2.2967255354      -13.7136323580
 H         2.9598836072        1.7923834059      -14.2934998993
 H         4.0918729525        2.2975381196      -15.5457643975
 H         2.9883246079        3.6504310848      -13.0663679327
 H         3.2995207085        4.5674838446      -14.7352888678
 H         7.7158488825        5.5986333510      -14.1299192800
 H         7.9907344301        7.1011878747      -13.2795256730
 H         8.6751637270        7.3726176406      -15.6986962978
 H         7.4719976330        8.5126917033      -15.2585046631
 H         9.1364871739        8.2864580872      -20.3641860195
 H         7.8098861988        7.5211940550      -20.8311405506
 H        10.4102618279        6.0217536987      -20.2568704863
 H         9.9676758151        6.3181931365      -21.8548425829
 H        10.0946382969        2.5373396078      -19.9337728261
 H        10.0925976872        1.1779690782      -21.2236323420
 H         9.7650825905        0.1766707220      -19.0543720996
 H         8.5097968316       -0.1114138259      -20.2198946500
 H         3.8985108695        0.2041905395      -19.5289249285
 H         5.0706995125        1.3156527544      -20.3440435932
 H         3.7061270229        2.0080809502      -19.4792374208
 H         5.5416351433       -1.2658187127      -19.1679127643
 H         7.1588635202       -1.5605337361      -19.3538162817
 H         6.3924541650       -0.4238559995      -20.4284895645
 H         6.3794688309       -1.3754724940      -17.0142709596
 H         5.7481999688        0.0057100610      -16.5578867991
 H         7.5531000329       -0.1307044351      -16.4937662457
 H         8.0928336430        5.0214985480      -23.4785716152
 H         7.6511892889        3.1819578527      -23.5336685511
 H         9.1827666942        3.8363335964      -24.1467347338
 H        11.0078472177        2.7832466667      -22.8041310693
 H        11.3281059090        3.7306396990      -21.3413268237
 H        11.0349995222        4.5977531859      -22.7090018868
 H         4.9578186171        6.8406113876      -18.4456246069
 H         5.9250746785        5.6508147785      -19.1544867382
 H         5.7727102581        7.0601167643      -19.9149953250
 H         7.7283298600        9.2397136606      -17.5202358179
 H         5.9235930476        9.1072719573      -17.5394193540
 H         6.8895525243        9.3002863240      -19.0424398981
 H         4.3440106553        6.9035948513      -11.2702590458
 H         3.7270830103        5.2650517039      -11.3698381990
 H         3.5322251722        6.4472551716      -12.7170899395
 H         6.1154982417        4.2389385552      -10.8217996903
 H         6.8715800387        5.9407187916      -11.0924819873
 H         7.2257774301        4.5519589842      -12.1336956891
 H         5.1989137318        2.0797702288      -11.4104494979
 H         4.6424983544        0.7663738645      -10.6537877298
 H         3.4143883975        1.7180100118      -11.3152579923
 H         5.8486194251       -0.7459625510      -11.5142468953
 H         6.8574383143       -0.0868363780      -12.4634446503
 H         5.8949817225       -1.4500613724      -12.9548456684
 H         2.9076719199       -4.5544373475      -10.8233795233
 H         3.5073750802       -6.0402837568      -11.4880813923
 H         1.9580152408       -5.9684792727      -10.4061190557
 H         1.3342373845       -7.4892774065      -12.6283263933
 H         2.5598811834       -6.8404059930      -13.7961525154
 H         0.9922229915       -6.3753751002      -14.0548234196
 H        -1.8040738242       -1.8736154570       -8.2812072224
 H        -1.5844903737       -2.5193756153       -9.8217474596
 H        -0.2818797509       -2.5901946360       -8.6501185275
 H        -1.5129781717       -5.3907949719       -6.4702264457
 H        -2.0816151089       -3.7891766284       -6.0879679556
 H        -0.4479815580       -3.9057499139       -6.4496424891
 H        -7.5300392522       -3.1648523216       -5.0432647694
 H        -5.9700391021       -2.6465711595       -4.3842506572
 H        -7.1603529294       -3.0126221936       -3.1897048881
 H        -5.5542678916       -5.0929183617       -2.0638357984
 H        -4.5453887165       -4.0576265693       -3.1757053007
 H        -4.5728750320       -5.7820497263       -3.2805082056
 H       -11.6185304649      -11.0623675632       -1.6819683656
 H       -10.5065755860      -10.1513577759       -0.6744055029
 H        -9.9108239062      -11.4087727827       -1.6632377148
 H       -11.6401130206      -10.7229250473       -3.9799652189
 H        -9.9922434446      -11.0865263444       -4.3521592124
 H       -10.6349555233       -9.6201191336       -5.1317154851
 H       -15.0238978944       -4.5932144411        2.3497011428
 H       -14.1219946449       -3.4628545816        1.4706862024
 H       -13.3462363731       -4.8742758730        1.9151628209
 H       -15.3874920405       -7.4781516130       -0.0392065145
 H       -16.5308351244       -6.5855903918        0.9058219621
 H       -14.9607599695       -7.1382075057        1.7365260549
 H       -14.7424768033       -3.2146082521       -5.6362440573
 H       -14.7237856175       -1.5786805045       -5.0251231951
 H       -15.5648071501       -1.9957054731       -6.5639407155
 H       -18.5340936210       -1.3924791426       -4.6019256128
 H       -17.6885580574       -1.1915751060       -6.1405816163
 H       -17.0114383328       -0.4092198334       -4.8845296719
 H       -21.7798114853       -5.8105690933       -6.3502214110
 H       -22.9848926640       -4.6563704725       -5.6831132656
 H       -22.9288158384       -6.2514706736       -5.1564768845
 H       -22.6130643678       -3.4445395728       -3.5883471421
 H       -21.4770432624       -4.0339066651       -2.3195133470
 H       -22.7809236624       -4.9523706051       -2.7625496964
 Na      -18.6207107643       -4.3635380774       -2.2421234479
 Na        6.7205191813        3.0019881297      -16.1721052949
