232

 C        -0.9541059695        7.4646457277      -24.5002518027
 C        -1.3254627040        6.1156996757      -23.7160213117
 O        -2.4530070008        6.0959970110      -23.2445086564
 C        -0.4581390791        4.8662534778      -23.5096692098
 C        -1.0771147623        3.4844272998      -23.9214543915
 O        -1.6745075081        2.7672375958      -23.1726663719
 C        -0.8476694154        2.9387745566      -25.3854019623
 C        -2.0674006552        2.1350351446      -25.8999652628
 C        -3.2580331752        3.0528591441      -26.1752712914
 O        -3.1216234207        4.2205308917      -25.8971896971
 C        -4.6416954296        2.4973001796      -26.5963118806
 C        -5.3771358061        2.2306291836      -25.2191862631
 O        -4.7314512296        2.0352145577      -24.2113799516
 C        -6.8449170397        2.5491905347      -25.1529990823
 C        -7.5668159778        2.3868632473      -23.7819920042
 C        -6.6282493234        2.9605324422      -22.7098654343
 O        -5.9260346749        3.8837521192      -23.0282448834
 C        -6.5579959260        2.5408566857      -21.2107465681
 C        -5.0277854433        2.2372301196      -20.7618824610
 O        -4.1664714629        2.6127801588      -21.5056333619
 C        -4.8531716487        1.3247763724      -19.5265661117
 C        -3.3998675296        1.0524739509      -19.1551010116
 C        -3.0341416382        1.7522470244      -17.6804224628
 O        -3.7260607675        2.5838869215      -17.1761328364
 C        -1.8149155408        1.1928773178      -16.8615657433
 C        -2.3311984902       -0.1438060172      -16.0733229990
 O        -2.0424515235       -1.2239486491      -16.5550212390
 C        -2.8952240896        0.0799184193      -14.6931243344
 C        -3.5371251951       -1.2582164377      -14.1973572848
 C        -2.7433740111       -1.9420228018      -13.0416102404
 O        -1.9746576257       -1.3300343373      -12.3775543157
 C        -2.9296673207       -3.4207557249      -12.7333801413
 C        -2.2311556112       -3.7844624982      -11.3332355004
 O        -1.6134007123       -4.8271643798      -11.2264055517
 C        -2.6215204771       -2.8256278873      -10.1829649323
 C        -2.4744923101       -3.6086284718       -8.8295515047
 C        -3.3574680341       -4.9457132269       -8.6479840669
 O        -3.9420073556       -5.5817987161       -9.4728278798
 C        -3.6389692380       -5.3061269917       -7.0784749491
 C        -2.3862241764       -5.3302334084       -6.1789877611
 O        -2.4613146571       -4.9804952943       -5.0415440174
 C        -1.0886490252       -5.9767688472       -6.6942457726
 C         0.0669050360       -5.7303689430       -5.7567259200
 C        -0.1287423508       -6.5513131626       -4.4634522600
 O        -1.0002965841       -7.4034181198       -4.4708638053
 C         0.8614580203       -6.0697927200       -3.3841202149
 C         1.0049909737       -4.5855145653       -3.2748394985
 O         0.0292022204       -3.8675445365       -3.0127108495
 C         2.3782562775       -4.0090090045       -3.4324548808
 C         2.2793338584       -2.4336172741       -3.6973579985
 C         2.0659705280       -2.0098868716       -5.1844332182
 O         2.1421230628       -2.7926333363       -6.1545428950
 C         1.9250086487       -0.4116172421       -5.3772829571
 C         0.7047094259        0.0858765201       -4.5468643822
 O         0.9432742286        0.5230244543       -3.4406287172
 C        -0.7857410612        0.0967719177       -5.0495132374
 C        -1.7603974997        0.4588627329       -3.8920808826
 C        -1.8698442257       -0.8394118581       -3.0781570899
 O        -2.0783572295       -1.8744559054       -3.6902394711
 C        -1.8517600083       -0.9087064738       -1.5310825268
 C        -3.3398895586       -1.4971458775       -1.0215457144
 O        -3.5936992574       -2.6316149811       -1.2719558750
 C        -4.4174831183       -0.6575498778       -0.3938507172
 C        -5.3327320480       -1.5094514267        0.5434520166
 C        -4.5378677787       -2.1173756312        1.6587387614
 O        -3.4439943239       -1.6758405445        1.9324547012
 C        -5.1091728507       -3.2577484357        2.5800344452
 C        -5.1307453996       -4.4885748907        1.6687024221
 O        -6.0981131250       -4.6406723591        0.9234753305
 C        -3.9894550086       -5.4757930577        1.7044349867
 C        -4.0624995971       -6.7543988166        0.8925247673
 C        -3.9663527614       -6.2864211387       -0.5995662048
 O        -3.0133911541       -5.5429766086       -1.0462778577
 C        -5.2659315023       -6.5982056460       -1.6425360155
 C        -5.7190155587       -5.2522747396       -2.2888362762
 O        -4.8753296289       -4.6025498165       -2.9044319333
 C        -7.1559906217       -4.8448448425       -2.1395245775
 C        -7.5661006323       -3.6207350893       -3.0213933211
 C        -8.1566651799       -2.4664443328       -2.2037589856
 O        -7.3259383646       -1.8676956575       -1.5307788579
 C        -9.6700105277       -1.8570529024       -2.3608587389
 C       -10.0333488422       -1.7838522715       -3.9031759830
 O        -9.2185297298       -2.0688279129       -4.7773371118
 C       -11.4852941453       -1.3659275541       -4.3393570464
 C       -10.5809721174       -2.9033463027       -1.7141807366
 C        -9.7389441150       -0.4735607261       -1.7294707621
 C        -4.5131087102       -7.3996896758       -2.8765908823
 C        -6.3251815431       -7.5839850890       -1.1228053057
 C        -4.1887446449       -3.3510676507        3.7992328112
 C        -6.5936989199       -2.8062378457        2.9375214176
 C        -0.7720066453       -1.8286997491       -1.1060400998
 C        -1.4898939965        0.4669346569       -0.9488558551
 C         3.2285735401        0.3323045392       -4.8609086208
 C         1.5283088936       -0.1387553194       -6.8626214257
 C         0.2230310086       -6.5020149549       -2.1405459129
 C         2.1498244810       -6.9641062906       -3.3571244938
 C        -4.7672251849       -4.3014863313       -6.5494074450
 C        -4.2356838244       -6.7657353442       -6.9770880379
 C        -4.3871211435       -3.8442239024      -12.4184889555
 C        -2.3235374989       -4.2768126345      -13.9306870770
 C        -0.5728309412        0.8093393687      -17.6573353632
 C        -1.4373662114        2.3658635403      -15.8374014484
 C        -7.1291794903        3.7512453777      -20.3856331329
 C        -7.4419879715        1.2577174796      -20.9780513699
 C        -5.4033311340        3.5025278180      -27.4123433716
 C        -4.4372791015        1.1194199046      -27.3903814970
 C         0.9231379507        5.1734330799      -24.1930070936
 C        -0.2463446671        4.8669742186      -22.0163130544
 H        -0.2622630763        7.9084353411      -23.8267064912
 H        -1.8098366241        8.1304840159      -24.5282196186
 H        -0.5112213749        7.1359251099      -25.4311237458
 H         0.0162983205        2.2337117982      -25.2941997040
 H        -0.5378565639        3.8106035921      -26.0174026165
 H        -2.3128893941        1.3618755307      -25.1851858211
 H        -1.7817770702        1.7268638282      -26.9334682227
 H        -7.4012429407        2.0975557988      -26.0172187713
 H        -6.8271072281        3.6129965702      -25.3398547267
 H        -7.8075084849        1.3610593538      -23.5598835760
 H        -8.4971641288        2.9741085407      -23.8045537185
 H        -5.4137737868        0.3399745251      -19.6177721239
 H        -5.3942650757        1.8392187119      -18.7351601168
 H        -2.6294613285        1.3084266757      -19.8637004540
 H        -3.2114752328        0.0057461941      -19.0636280627
 H        -3.6692784468        0.7730019124      -14.8015104038
 H        -2.0518860757        0.3709198044      -14.0318403190
 H        -3.6690868871       -1.8988696574      -15.0266853904
 H        -4.5191983598       -0.9804036125      -13.8753776801
 H        -3.6767256749       -2.3840135766      -10.3595990974
 H        -1.9101763630       -1.9213689430      -10.1087344191
 H        -2.5650286446       -3.0104166831       -7.9791876931
 H        -1.3588079325       -3.8344831760       -8.7857657466
 H        -0.6336236390       -5.8044952370       -7.6979032469
 H        -1.4011022180       -7.0543368735       -6.7798053116
 H         0.2175309126       -4.6926631494       -5.5312710320
 H         0.9566627954       -6.0409273423       -6.2268710535
 H         2.8044279083       -4.4715463150       -4.2845623784
 H         3.0516088002       -4.2129798288       -2.5934395053
 H         3.2625190578       -1.9547707706       -3.3304318821
 H         1.4631303229       -1.9251042228       -3.1076163214
 H        -1.1630103703       -0.7494635468       -5.5221675855
 H        -0.7647411895        0.8649072963       -5.7785645723
 H        -2.7979450060        0.7796898708       -4.2904799074
 H        -1.4798331805        1.4531914764       -3.4115128804
 H        -5.1178491330       -0.2131187726       -1.0959571553
 H        -3.9555940459        0.2249552658        0.1171830329
 H        -5.8708284237       -2.1311167765       -0.1570281571
 H        -6.1556408600       -0.8918983651        0.8123493741
 H        -3.6712910737       -5.6599596502        2.7178032778
 H        -3.2030301073       -4.7163159296        1.3460082433
 H        -4.9145521344       -7.3983333436        1.0911707974
 H        -3.0364559601       -7.2164695455        1.0507018761
 H        -7.2653149827       -4.5652804779       -1.0683033370
 H        -7.8378299280       -5.6465219982       -2.3479336337
 H        -8.2000789666       -3.9232541390       -3.8287834531
 H        -6.5504246348       -3.2752172316       -3.4172201914
 H       -11.6817717705       -0.3239330743       -4.3284913706
 H       -12.3564768019       -1.8952929743       -3.8287313162
 H       -11.6423423742       -1.6520359363       -5.3601741502
 H       -10.7774808030       -3.6753738488       -2.3829695670
 H       -11.6049107143       -2.3899682625       -1.5159888549
 H       -10.2414609827       -3.3294466938       -0.7750138789
 H        -9.3809031658       -0.4030064844       -0.6691410629
 H       -10.7733984251        0.0251664512       -1.8053326331
 H        -9.1126154787        0.1694048599       -2.3492358388
 H        -5.3082328161       -7.9389450748       -3.3824220875
 H        -3.7487038356       -8.0397345920       -2.3860874150
 H        -3.9298336295       -6.6989325612       -3.5267221340
 H        -7.0276389986       -7.9108221957       -1.9092654444
 H        -6.8246479682       -7.1766259203       -0.1995360993
 H        -5.6942443467       -8.5035581124       -0.8987081133
 H        -4.6040018162       -3.9983707320        4.5694926965
 H        -4.2205302883       -2.3133380820        4.2304113151
 H        -3.0973058324       -3.5637044736        3.4932919422
 H        -6.6865576339       -2.1055060131        3.7712015014
 H        -7.1362825052       -3.7443137749        3.1241950477
 H        -7.0085529793       -2.5180730617        2.0198825784
 H        -0.0677019863       -1.8473524883       -1.9349566860
 H        -1.1931783410       -2.8366801275       -1.0121021641
 H        -0.3225077962       -1.5060541695       -0.1769697966
 H        -0.4597800850        0.7506170785       -1.2800915980
 H        -1.4546078053        0.4842310648        0.1473147849
 H        -2.2472069396        1.1931381010       -1.3391793355
 H         3.0030257499        1.4013104314       -4.6972228210
 H         4.1306958681        0.2551113389       -5.5373956526
 H         3.6479995338       -0.0286636798       -3.9111338478
 H         0.7102631992       -0.7816610966       -7.1869003483
 H         2.3555572852       -0.2185533172       -7.5581225969
 H         1.0380206006        0.8295647388       -7.0102379902
 H         0.8015091073       -6.3319737054       -1.2031932741
 H        -0.1206442263       -7.5343344438       -2.0089258723
 H        -0.6273351993       -5.8877250563       -1.9882706333
 H         2.0582219964       -7.9195417403       -3.9392656671
 H         2.5607319623       -7.3231386940       -2.3353066320
 H         2.9424785766       -6.4705500110       -3.9417015126
 H        -5.7086406082       -4.3737221879       -7.0405843838
 H        -4.3516295710       -3.3567376878       -6.6668398011
 H        -4.8403559568       -4.4824423193       -5.4487567605
 H        -5.0624719038       -6.6921938187       -6.2143028468
 H        -3.5884653716       -7.6095880815       -6.7629409259
 H        -4.7233369808       -7.0290839709       -7.9213225532
 H        -4.9159116808       -2.9083819112      -12.2373976345
 H        -4.5355729795       -4.4256872099      -11.4738149704
 H        -4.8700328257       -4.4417800712      -13.2722287921
 H        -1.9177316212       -5.3082515314      -13.6917837802
 H        -1.5300953165       -3.7277095909      -14.5208623099
 H        -3.1132753878       -4.4536266178      -14.6424493155
 H        -0.1758437042        1.6564760338      -18.2047843165
 H        -0.7792172630       -0.0825859972      -18.3211022634
 H         0.1520949045        0.4998733621      -16.9644471372
 H        -2.3248643429        2.6419115054      -15.3786997169
 H        -0.9248583390        3.1043800921      -16.4256347944
 H        -0.6740232575        1.9717439971      -15.1062911415
 H        -7.9497176619        4.2295541940      -20.8454910947
 H        -6.3194260989        4.4682127079      -20.5370312136
 H        -7.3690851948        3.5602947859      -19.3453465527
 H        -8.5078516313        1.4851407992      -21.3030688426
 H        -7.4729161171        0.9055064644      -19.9592304660
 H        -7.1384074242        0.3480872805      -21.5640018345
 H        -5.3788922408        4.4852109467      -26.8974977888
 H        -6.4390831112        3.1206296562      -27.5882618882
 H        -5.1289658936        3.6993432061      -28.4460516299
 H        -3.9237497695        1.1683759056      -28.3794927553
 H        -5.5048431060        0.8566579152      -27.5431316909
 H        -3.8204584918        0.4446315793      -26.6810380703
 H         1.2994278367        6.0122957056      -23.6522847283
 H         0.8366106964        5.4782670424      -25.2095375461
 H         1.7844287643        4.4301389758      -24.0926173687
 H        -1.2162886548        4.8162890787      -21.6551737617
 H         0.2158271694        5.7946869094      -21.7631479859
 H         0.4322948934        4.0498772313      -21.7042782924
 Na       -2.3449435863       -4.1431243599       -2.6412294340
 Na       -3.6337293382        3.9161089614      -23.2832677729
