232

 C        -0.8990146475        7.1853197419      -24.7996230559
 C        -1.4332461544        6.0980592276      -23.9407664159
 O        -2.5853820360        5.9776778094      -23.5217657342
 C        -0.4292741384        4.8290253581      -23.6010607341
 C        -1.2011539774        3.5067252227      -24.0432475188
 O        -1.8836834687        2.7342287188      -23.3659990461
 C        -0.8524991461        2.9307517556      -25.4748049306
 C        -2.1201855070        2.1091611629      -25.9456584838
 C        -3.3500505739        3.0901490138      -26.0965154732
 O        -3.2832790387        4.2316056259      -25.7420372772
 C        -4.8037723866        2.4084664851      -26.5801901725
 C        -5.6947041607        2.0436107054      -25.2939724150
 O        -5.1117593190        1.3168784644      -24.5174101961
 C        -7.1122393273        2.5013563611      -25.1257578967
 C        -7.5558370349        2.4008439702      -23.6718527034
 C        -6.5443833564        3.0699400855      -22.6362874026
 O        -6.1008612948        4.1476630890      -22.8903370928
 C        -6.4677229471        2.5689444324      -21.1639955228
 C        -4.9839712153        2.3153493868      -20.6962356865
 O        -4.0676792636        3.0301975383      -21.0273488083
 C        -4.7635285283        1.3680421616      -19.4917846906
 C        -3.3866674615        1.2459449411      -18.9942247323
 C        -3.0724819216        1.9147774289      -17.6198318072
 O        -3.8147824171        2.8195400949      -17.2583539698
 C        -1.8245353728        1.4021809917      -16.9736399391
 C        -2.2496526942       -0.0551039253      -16.3085265831
 O        -1.7770405287       -1.0258807068      -16.8528352001
 C        -2.9242474633       -0.0731114767      -14.9448717377
 C        -3.3734874920       -1.4752075474      -14.4586940344
 C        -2.8128415294       -1.9168412901      -13.0521235920
 O        -2.1206561679       -1.2996548835      -12.3147732588
 C        -3.2111966264       -3.3394156330      -12.6058625775
 C        -2.3906088102       -3.6708209451      -11.1849353890
 O        -1.5441291236       -4.5332633357      -11.1165188004
 C        -2.5482454253       -2.8146246556       -9.9720887099
 C        -2.2454772258       -3.5987935236       -8.6603939346
 C        -3.2418935465       -4.7697149523       -8.4938366049
 O        -3.7030704423       -5.3144298722       -9.4473873650
 C        -3.5393896850       -5.2539213859       -7.0701581670
 C        -2.2804349825       -5.4527657186       -6.0861027771
 O        -2.4182412178       -4.9312363180       -5.0285430701
 C        -1.0005007104       -6.0890410701       -6.6336137538
 C         0.2019888354       -5.7872302365       -5.7635497994
 C        -0.1033484184       -6.4507090523       -4.3649863787
 O        -1.0043313628       -7.2496071013       -4.1523265072
 C         0.8909300259       -6.0371350636       -3.2260152674
 C         1.0469961523       -4.4283648988       -3.2828658980
 O         0.1316244856       -3.6169488240       -3.1908944912
 C         2.4710430288       -3.8619494560       -3.4505398042
 C         2.5041868075       -2.3132536719       -3.5878707117
 C         2.1197451305       -1.8547406537       -4.9665700510
 O         1.9694950168       -2.7090482510       -5.8700030154
 C         2.0476509493       -0.3344080334       -5.3398858957
 C         0.8920254925        0.2036363114       -4.4215179831
 O         1.1329774564        0.3615800026       -3.2695613419
 C        -0.5991134693        0.3086041956       -4.9159742235
 C        -1.6763957702        0.4957273682       -3.8098989758
 C        -1.7696593574       -0.8554869594       -2.9426368789
 O        -1.9826760880       -1.8608086692       -3.5629982889
 C        -1.7875362308       -0.8594694659       -1.3142929674
 C        -3.2648263087       -1.5156180275       -1.0803337447
 O        -3.4533569624       -2.6824782990       -1.2982942654
 C        -4.3477291829       -0.6125505787       -0.4303075627
 C        -5.2217406333       -1.5962429333        0.4476526992
 C        -4.3875218655       -2.2859677524        1.4931006430
 O        -3.2228847731       -1.9727465100        1.6882840207
 C        -5.0499132499       -3.4050422707        2.4456372584
 C        -5.0882027167       -4.7318174631        1.6042842744
 O        -5.8993491808       -4.8121418478        0.7362678591
 C        -4.0423408240       -5.8301253736        1.8376549343
 C        -4.1723165065       -6.7706944047        0.7584660907
 C        -4.0684090048       -6.2608265934       -0.5932294934
 O        -2.9871368255       -5.6437548892       -0.8280201220
 C        -5.1276378903       -6.6519925531       -1.7215122399
 C        -5.6703253868       -5.3267326330       -2.3639418139
 O        -4.9641018871       -4.7012097141       -3.1745649349
 C        -7.1311092317       -4.9780216142       -2.0644194826
 C        -7.7606358098       -3.9710486076       -3.0459669305
 C        -8.1297466439       -2.6338374362       -2.3745305983
 O        -7.3329959228       -2.1411807112       -1.6231994608
 C        -9.6078914845       -2.0607877723       -2.4656541604
 C       -10.0541615419       -1.7637475574       -3.9118866835
 O        -9.3913515873       -2.0054870394       -4.9135263332
 C       -11.4203810295       -1.1467945556       -4.1705342789
 C       -10.5225564747       -3.1065612675       -1.9012691959
 C        -9.6553218969       -0.6226297209       -1.7892353055
 C        -4.3979686217       -7.5454447788       -2.8328974604
 C        -6.3478724291       -7.5318081973       -1.2000777587
 C        -4.1890926791       -3.4680390559        3.8145480063
 C        -6.5424895888       -3.0014753236        2.7873311779
 C        -0.7199236619       -1.8062168241       -0.7046004144
 C        -1.7068922048        0.5658332677       -0.7682932205
 C         3.3995168634        0.3915865730       -4.9677824007
 C         1.6389613522       -0.1948715424       -6.7936083907
 C         0.2438831706       -6.4623982550       -1.9744713725
 C         2.2351689965       -6.7766654099       -3.4173497200
 C        -4.5574434763       -4.1463723277       -6.4592036804
 C        -4.4210663434       -6.4759662702       -7.2624639734
 C        -4.8286407674       -3.3516188643      -12.4233621724
 C        -2.7638968397       -4.4148428384      -13.6326301129
 C        -0.5992227692        1.1124324370      -17.8908056325
 C        -1.3155965037        2.4367071953      -15.8830460893
 C        -7.0162008384        3.7195834005      -20.1496814979
 C        -7.3734503498        1.3284755449      -21.0444031685
 C        -5.3846201638        3.4725605384      -27.5906076271
 C        -4.7123452651        1.0151853656      -27.2874619783
 C         0.9430055073        4.9196232854      -24.2771333182
 C        -0.2870667301        4.6872266763      -21.9949623341
 H         0.0352932979        7.4566394841      -24.3457640174
 H        -1.6119705241        7.9580674489      -24.5835274076
 H        -0.8914326546        6.7595797787      -25.8230235258
 H         0.1010013780        2.4450733460      -25.3294307708
 H        -0.6956455194        3.7585457692      -26.2206752709
 H        -2.5094721273        1.4398101725      -25.1523308462
 H        -1.9186248775        1.5426086135      -26.9264209770
 H        -7.7610434544        1.9193727893      -25.8596465807
 H        -7.1069344631        3.6117624981      -25.4789915479
 H        -7.6609361735        1.3244968646      -23.4474522228
 H        -8.5240191714        2.9876461060      -23.5294149550
 H        -5.1622271491        0.3905734092      -19.8694295099
 H        -5.3898338898        1.6626149354      -18.7223655617
 H        -2.6709911395        1.5224273698      -19.8468497526
 H        -3.0921748108        0.2068067456      -18.7674913917
 H        -3.8406892568        0.5350052932      -14.9625081662
 H        -2.1569801535        0.2359547415      -14.1988874779
 H        -3.1475340519       -2.2709385390      -15.1787558999
 H        -4.5106153049       -1.3971392178      -14.3592841100
 H        -3.5387126501       -2.3295486343       -9.8526437095
 H        -1.9500034603       -1.9832374576      -10.1126725324
 H        -2.2997632513       -2.9645661735       -7.9184731164
 H        -1.2119637835       -3.9841329530       -8.5156265132
 H        -0.9600653165       -5.7210742923       -7.6448583930
 H        -1.0521353294       -7.1782894383       -6.6842784199
 H         0.5111983844       -4.6929889931       -5.6094046844
 H         1.1310210497       -6.2622630665       -6.0372379493
 H         2.8920309736       -4.3180956221       -4.3954287227
 H         3.1375056232       -4.1545699777       -2.5555827686
 H         3.4359040019       -1.8729630452       -3.2376137857
 H         1.6533834555       -2.0090337678       -2.9746041242
 H        -0.8233815637       -0.5676432512       -5.5021185809
 H        -0.6993997794        1.2107096275       -5.6295282615
 H        -2.5821662968        0.7939912354       -4.2794276346
 H        -1.4091873950        1.4083412012       -3.3281426089
 H        -4.8843262427       -0.0328979185       -1.1567842918
 H        -3.9801634721        0.2357887409        0.2694582094
 H        -5.7475498837       -2.3263358963       -0.2533369208
 H        -6.1343817858       -1.1170303824        0.8337508267
 H        -4.1864174177       -6.2448186963        2.8137486518
 H        -3.0891766682       -5.3905576335        1.9823365849
 H        -5.1272274471       -7.2815036306        0.7469385306
 H        -3.3929134683       -7.5526460085        0.8436774290
 H        -7.1896172631       -4.5770157646       -1.0768875649
 H        -7.7737206468       -5.8308035579       -2.1087359072
 H        -8.6181122994       -4.4086659850       -3.5164634410
 H        -6.9605735164       -3.8719271222       -3.8867760607
 H       -11.4567019624       -0.7534822295       -5.1777466862
 H       -11.9495567600       -0.5449393437       -3.3187444664
 H       -12.1728464232       -1.9578929305       -4.1335389741
 H       -10.4204658086       -4.0138205964       -2.4409643220
 H       -11.6366129208       -2.8974792748       -1.9219069703
 H       -10.1714252342       -3.2917761657       -0.9068856689
 H        -9.4464578230       -0.7283483424       -0.7590868855
 H       -10.5735822085       -0.0715811249       -2.0151231731
 H        -8.8181300557       -0.0577518801       -2.1566421436
 H        -4.9286770843       -7.3549099642       -3.7632467650
 H        -4.4055246891       -8.6006963028       -2.5939367795
 H        -3.4338099524       -7.1313383022       -2.9431983187
 H        -6.8728109635       -7.6413594946       -2.0744438360
 H        -6.9734176404       -7.0947235499       -0.3999712694
 H        -5.9878607003       -8.4690579609       -0.8898979214
 H        -4.3966207079       -4.4037589433        4.2842630117
 H        -4.5179015583       -2.7029555710        4.4386779241
 H        -3.1214572786       -3.3971046328        3.6517295205
 H        -6.6545973119       -1.8987733428        2.8169568746
 H        -6.9343445149       -3.4220595034        3.7272758794
 H        -7.0624962561       -3.4037583106        1.9283649859
 H         0.1952440447       -1.3025143604       -0.5062514971
 H        -0.5359997543       -2.6170282515       -1.3810523708
 H        -1.1962665081       -2.0643951949        0.2692546963
 H        -0.7029490891        0.9760034000       -0.9134416526
 H        -1.9300522049        0.6783062770        0.2299746069
 H        -2.4988234233        1.0183842507       -1.3136036467
 H         3.7550563410        1.0953189778       -5.6458226658
 H         4.1723561615       -0.3691188364       -4.8185802981
 H         3.3088508624        0.9402410814       -4.0104565625
 H         0.5468242005       -0.3192690476       -6.9061252721
 H         2.1710374999       -0.8850912611       -7.4252060730
 H         1.8830610476        0.8174429745       -7.1589133747
 H         0.9328613345       -6.7186979602       -1.1340905409
 H        -0.2292361953       -7.3925332575       -2.1459253626
 H        -0.5775475908       -5.9483580398       -1.5303845314
 H         2.2199246639       -7.7371817412       -2.9864807949
 H         2.9504390885       -6.1965311448       -2.8551861421
 H         2.6100771493       -6.9356643416       -4.3652598176
 H        -5.5525944307       -4.4085615014       -6.7330302104
 H        -4.1678733804       -3.1728565549       -6.7418577638
 H        -4.5453857920       -4.2561407945       -5.2905327157
 H        -4.8863833630       -6.8768051301       -6.3488321129
 H        -3.8263216168       -7.2945627216       -7.7099582297
 H        -5.2015882430       -6.2036541685       -7.9354063284
 H        -5.2516948565       -3.5943875569      -11.4322055084
 H        -5.2612247430       -4.1926671718      -12.9840830343
 H        -5.2528678998       -2.3981773262      -12.6167783767
 H        -1.7318970914       -4.3230157258      -13.9274508756
 H        -3.3672691552       -4.4423662354      -14.5526844645
 H        -2.6756212300       -5.3760450112      -13.2236767633
 H        -0.5091992663        2.0305655383      -18.5409491629
 H        -0.6164944896        0.1550436727      -18.4170106498
 H         0.3013946422        1.1095290530      -17.3572546734
 H        -2.1937207993        2.9677135549      -15.6077666139
 H        -0.5388536749        3.0660450951      -16.4187293380
 H        -0.8473932746        1.8436001173      -15.0401732006
 H        -8.1002927670        3.7354340648      -20.2656043168
 H        -6.6885832084        4.7331188934      -20.4141146471
 H        -6.7356414947        3.3508271620      -19.0987261788
 H        -8.3665033322        1.5506240192      -21.3136997382
 H        -7.4227805974        0.9090179628      -20.0640839818
 H        -6.9397805514        0.5502042991      -21.6908155377
 H        -5.5752805848        4.4245393347      -27.1505513374
 H        -6.2278123928        3.1880518207      -28.1758638889
 H        -4.5629999481        3.7346847817      -28.2617111106
 H        -3.9909210600        1.1803469842      -27.9898199122
 H        -5.5742269313        0.7425473475      -27.7663702556
 H        -4.2077631860        0.4290318720      -26.5380517552
 H         1.4212946603        5.8294067761      -23.9371128560
 H         0.8890123332        4.8622559652      -25.3577106885
 H         1.6642537969        4.0973600410      -24.0706073146
 H        -1.2946768827        4.5440204581      -21.5643605986
 H         0.3019146385        5.4994067186      -21.5398997142
 H         0.3398246500        3.8119667908      -21.9545649026
 Na       -2.6014079012       -4.2010554562       -3.0782348965
 Na       -3.9015104342        4.0380077990      -22.9957814267
