232

 C        -0.8136255042        7.1635170750      -24.9434417700
 C        -1.3789839618        5.9686051035      -24.0044874170
 O        -2.4931836943        6.0639128201      -23.5747438530
 C        -0.4607581016        4.6496070684      -23.7255152680
 C        -1.2000047161        3.3594611039      -24.1047303743
 O        -2.0409781441        2.8922236865      -23.3744392233
 C        -1.0571495756        2.9511243561      -25.5768519649
 C        -2.2107425821        2.1233797114      -25.9951806187
 C        -3.4929569545        2.9163302279      -25.9990441307
 O        -3.4667271479        4.0926475284      -25.5953418287
 C        -4.6988131221        2.4179435333      -26.5924715558
 C        -5.6385595309        2.0562329334      -25.3128801325
 O        -5.2683156378        1.1986389045      -24.5602889996
 C        -6.9728705802        2.7538016405      -25.0408132740
 C        -7.4880458279        2.3539063837      -23.6103443381
 C        -6.7327824258        3.1997538586      -22.6216766955
 O        -6.2303553800        4.2345157200      -23.0024002783
 C        -6.5388712384        2.5455983009      -21.0870709175
 C        -5.0110167829        2.4502682929      -20.5725280439
 O        -4.1191754008        3.1499565551      -20.9546499052
 C        -4.7894275304        1.3112384239      -19.5077553086
 C        -3.4299462220        1.1568480956      -18.9573015591
 C        -3.1060723085        1.9358842919      -17.6805298143
 O        -3.7749776275        2.7621754810      -17.1538081447
 C        -1.7667293637        1.4465075659      -16.9452218598
 C        -2.0837986082        0.0432944347      -16.3554447618
 O        -1.8132245730       -0.9552234859      -17.0165767495
 C        -2.8390962199       -0.0205581319      -14.9848612767
 C        -3.2440381492       -1.5382801178      -14.5910883236
 C        -2.8339362042       -1.9694982272      -13.0705054997
 O        -2.1812031971       -1.1770642050      -12.3881503127
 C        -3.2905189080       -3.3641526702      -12.5351418566
 C        -2.4237045014       -3.4835386779      -11.2313087886
 O        -1.5940096747       -4.3750819808      -11.2657422223
 C        -2.5989177515       -2.5708272730       -9.9537841897
 C        -2.2730799126       -3.4556231729       -8.7286837590
 C        -3.1495473959       -4.6880075738       -8.5448292562
 O        -3.7458391431       -5.2797435872       -9.4480651246
 C        -3.5954008896       -5.2467713259       -7.1331094111
 C        -2.3563000568       -5.3723703227       -6.2308568455
 O        -2.2607876129       -4.9215774728       -5.0964290405
 C        -1.0715424548       -6.1766333063       -6.7153484612
 C         0.0424427823       -6.0177335038       -5.7289937395
 C        -0.0986538570       -6.5605861919       -4.3013378942
 O        -0.9895427731       -7.3030310030       -4.1095434132
 C         0.9110381700       -6.0425030236       -3.1665049714
 C         1.0832168796       -4.3811801181       -3.3441787339
 O         0.0792787839       -3.7133685565       -3.1629315901
 C         2.5302582654       -3.7085281328       -3.3803459068
 C         2.5793649606       -2.1932550958       -3.5655964447
 C         2.2613262468       -1.8398075427       -4.9851745915
 O         1.7841929734       -2.6989927173       -5.7478851028
 C         2.0753744195       -0.3277974815       -5.3080761813
 C         0.9399073005        0.1452408463       -4.3145703959
 O         1.1506263223        0.3537324115       -3.1079029668
 C        -0.4830477424        0.3295141996       -4.8656282022
 C        -1.4533944730        0.4821906342       -3.6867274854
 C        -1.7342021311       -0.8171012861       -2.9129852526
 O        -1.8842701007       -1.8483601870       -3.5903890459
 C        -1.9394421361       -0.7913190108       -1.3846077743
 C        -3.2823492798       -1.5709006126       -1.0235541200
 O        -3.3933110730       -2.7328142915       -1.3485770332
 C        -4.3263198769       -0.8491444403       -0.3453044265
 C        -5.2073566922       -1.6242748262        0.5767577143
 C        -4.3492410691       -2.3282815975        1.5719800556
 O        -3.1508264258       -2.1928938726        1.6470517955
 C        -5.0449983472       -3.3623297156        2.4763712259
 C        -5.0317090732       -4.7058142174        1.6642452436
 O        -5.8256743887       -4.7756293541        0.6935766143
 C        -4.0111122584       -5.8610375712        1.8426473128
 C        -4.1873061098       -7.0344291328        0.8351738036
 C        -4.0486859994       -6.4024438143       -0.5667857834
 O        -3.0755050416       -5.6577939599       -0.8394414267
 C        -5.0736165749       -6.6188668683       -1.8001735018
 C        -5.6972355324       -5.3490840136       -2.4902167046
 O        -5.0488956366       -4.7544932228       -3.2911654237
 C        -7.1483661579       -4.9898942907       -2.1349851436
 C        -7.8138853485       -4.0261668890       -3.1151621661
 C        -8.1149715552       -2.7009258482       -2.4211301844
 O        -7.2608702570       -2.1808513610       -1.6704926023
 C        -9.5680133759       -2.1494837987       -2.4885550795
 C       -10.0803148056       -1.7860805364       -3.9870236413
 O        -9.3235730626       -2.0246863466       -4.8960929285
 C       -11.5048285203       -1.1116283443       -4.2512215118
 C       -10.5417220157       -3.1463865548       -1.9031993873
 C        -9.6230735609       -0.7608884216       -1.7400660695
 C        -4.3826052531       -7.3889347577       -2.8567323244
 C        -6.2145076372       -7.5247615036       -1.2361526295
 C        -4.1943537658       -3.5521431863        3.7279420558
 C        -6.5569279055       -2.9776826052        2.6604033031
 C        -0.8170066159       -1.6632059515       -0.6185218362
 C        -1.6956942539        0.6239103241       -0.8081492297
 C         3.3703006247        0.4595896038       -4.9525906651
 C         1.6746415496       -0.2153171976       -6.8407629537
 C         0.2310688565       -6.3568333254       -1.7065978375
 C         2.2461167703       -6.6783659873       -3.5179615523
 C        -4.4556161758       -4.0903714782       -6.4783399766
 C        -4.3666380946       -6.5511646972       -7.1849160372
 C        -4.7613528699       -3.3185966043      -12.2425626940
 C        -2.9419579163       -4.4888472573      -13.5394016099
 C        -0.5720013437        1.1640019912      -17.8894990832
 C        -1.3931668632        2.5360951112      -15.8462385668
 C        -6.9767969553        3.7349282610      -20.1447982099
 C        -7.2190358002        1.2410140035      -20.9346370637
 C        -5.4752045625        3.4365685444      -27.5020631714
 C        -4.5278366990        1.0242532451      -27.3444353809
 C         0.9249264297        4.8886077056      -24.2495004572
 C        -0.3568098901        4.7022769855      -22.1183020323
 H         0.1540032017        7.3686727003      -24.5615279960
 H        -1.4568693965        7.9531249530      -24.5562706852
 H        -0.9027636661        6.8706558886      -25.9620135371
 H        -0.0896341772        2.3524866456      -25.7573941074
 H        -0.9168827369        3.8653090412      -26.1713098593
 H        -2.2846800301        1.2107449114      -25.3182270396
 H        -1.9540353324        1.8229604040      -27.0881458222
 H        -7.7024270902        2.2826801312      -25.8617759205
 H        -6.9530562044        3.7775946183      -25.1686661702
 H        -7.1628190304        1.2928493412      -23.4226913106
 H        -8.5998385554        2.5367562133      -23.4575319625
 H        -5.1937910545        0.3925698692      -19.9407938144
 H        -5.4154607953        1.5791048819      -18.6903548481
 H        -2.7020588026        1.2925209382      -19.7910686180
 H        -3.1932257544        0.1528357549      -18.5674136585
 H        -3.7062010524        0.5674986990      -15.0822127212
 H        -2.1674762602        0.2427754523      -14.1284532231
 H        -2.6861716202       -2.1559773133      -15.2674263553
 H        -4.3006305565       -1.7449296631      -14.7249332310
 H        -3.5289238611       -1.9806111740      -10.0454730795
 H        -1.8566395528       -1.7034100236      -10.0463964259
 H        -2.1386935858       -2.9260266227       -7.7693286094
 H        -1.2936999176       -3.7856362010       -8.8896688025
 H        -0.7597302826       -5.6869833558       -7.6862857151
 H        -1.2566379047       -7.2717505671       -6.8782730126
 H         0.1335713725       -4.9649970476       -5.5346764295
 H         1.0347353220       -6.2696886543       -6.0299104432
 H         3.0911421295       -4.1365630248       -4.2210120950
 H         3.0197423186       -4.0145656302       -2.3949808650
 H         3.6828208953       -1.8895787996       -3.4444780964
 H         1.8937349166       -1.6845927752       -2.8276964951
 H        -0.7648263740       -0.5058727544       -5.4368681120
 H        -0.5048507049        1.1792698362       -5.4854025165
 H        -2.4026296645        0.9656841723       -4.0848545905
 H        -1.0421368381        1.3496254904       -3.0787903557
 H        -4.8280859976       -0.4065395206       -1.2556253111
 H        -4.0973814260        0.0687422496        0.2166587187
 H        -5.8597271367       -2.3519975185        0.0508773309
 H        -5.9799907209       -0.9580667750        0.9679135600
 H        -3.8988918627       -6.0210816332        2.8479262798
 H        -3.0235247353       -5.4277065661        1.6723175959
 H        -5.1238093908       -7.5251284956        0.8136170460
 H        -3.4220191122       -7.8627207720        1.0132845838
 H        -7.1500735567       -4.5302062973       -1.1709306616
 H        -7.7844177598       -5.8102006216       -2.0643851837
 H        -8.7610773453       -4.5022787975       -3.4677747251
 H        -7.1894229852       -3.8602360991       -4.0793952078
 H       -11.6171689189       -1.0331387228       -5.3640519001
 H       -11.6106542755       -0.2086899943       -3.6880918965
 H       -12.4244399636       -1.6150753571       -3.8038692994
 H       -10.3599087347       -4.1069205379       -2.2793836898
 H       -11.6218039641       -2.9815664898       -2.1730125749
 H       -10.3900076668       -3.1966789506       -0.8220313723
 H        -9.0728698401       -0.9807883597       -0.7795294773
 H       -10.7077843960       -0.4289317467       -1.6079600985
 H        -9.0434702140        0.0198897127       -2.2168448039
 H        -5.0182398505       -7.4221071019       -3.6918420588
 H        -4.2056801290       -8.4078907148       -2.5415320120
 H        -3.4729274300       -6.7753912079       -3.1694347182
 H        -6.9475270980       -7.8202328563       -2.0375711046
 H        -6.6645724540       -7.0203211668       -0.4549085224
 H        -5.6736879486       -8.3436286655       -0.7788090301
 H        -4.4752691837       -4.2842242471        4.4084375865
 H        -4.2096136203       -2.5266751600        4.1280124517
 H        -3.1467476937       -3.7754026640        3.3853433381
 H        -6.7562899484       -1.8899032018        2.8399013767
 H        -7.0635216950       -3.5727461106        3.4690631762
 H        -6.9315093129       -3.2541343336        1.6748196957
 H         0.0358230947       -1.0591869202       -0.3545371668
 H        -0.4706495750       -2.5112475486       -1.2014085614
 H        -1.2951567163       -1.8294510683        0.2647899184
 H        -0.7029478398        0.8373380315       -0.9788424468
 H        -1.8712053878        0.6065161122        0.2544512244
 H        -2.4064718030        1.2895698051       -1.1842241372
 H         3.7265228650        1.0272132348       -5.8579426541
 H         4.1796891789       -0.2749459304       -4.7761118579
 H         3.3204238500        1.2008594876       -4.1845509494
 H         0.6298733791       -0.5985651839       -7.0003780496
 H         2.3817958674       -0.7764009365       -7.5050437343
 H         1.7312809142        0.8610758533       -7.1641422619
 H         0.8818419672       -6.1958900799       -0.8379696117
 H         0.0255565267       -7.4341423146       -1.6259194703
 H        -0.7589832213       -6.0509523642       -1.4714319356
 H         2.2110888486       -7.6648961315       -3.0947887132
 H         3.1569382388       -6.1334675144       -3.1786828391
 H         2.4575477358       -6.8655066635       -4.5634363808
 H        -5.3873162269       -3.9209573040       -7.0173048233
 H        -3.7675440924       -3.2920551380       -6.3393865115
 H        -4.7557014791       -4.4774098768       -5.5249497676
 H        -4.4661319419       -7.0869891091       -6.1740117433
 H        -3.9424921695       -7.2769798846       -7.8818969222
 H        -5.4082185847       -6.2573653542       -7.4667012354
 H        -5.0780770702       -3.9231258512      -11.4442023530
 H        -5.3659327511       -3.8125471352      -12.9879515694
 H        -5.0732655625       -2.2640163170      -11.8504545671
 H        -2.2611070798       -4.1956910986      -14.3721990662
 H        -3.7603607996       -5.0219774438      -14.0008031505
 H        -2.2169975728       -5.1681370564      -13.1432180961
 H        -0.4289021344        1.9703558701      -18.5368529321
 H        -0.6978719833        0.1602046964      -18.3860978415
 H         0.3719135523        1.0468100633      -17.3886363573
 H        -2.3512284277        2.6254331757      -15.3017053989
 H        -1.1078092088        3.4457367844      -16.3594205768
 H        -0.5838666114        2.0328010386      -15.2140271530
 H        -8.0223138076        3.9802885789      -20.1713719678
 H        -6.4424426365        4.6414631215      -20.5625131814
 H        -6.6331338510        3.4899655504      -19.1900165889
 H        -8.3473444400        1.3779080797      -21.0430189622
 H        -7.1824229891        1.0187895542      -19.9073351416
 H        -6.8004984878        0.4161115714      -21.4952892759
 H        -5.8140815203        4.3503463372      -27.0789692813
 H        -6.3615591253        2.9776913313      -27.9461699464
 H        -4.7999395491        3.7501625200      -28.2017849627
 H        -3.8505160339        1.1803185485      -28.1919255644
 H        -5.4979163267        0.8019779946      -27.7062300006
 H        -4.0694916335        0.4223113637      -26.6000352943
 H         1.2513593895        5.8751186361      -23.9957464405
 H         1.0306010963        4.6619005057      -25.2886711544
 H         1.6945587080        4.1650438388      -23.8511676003
 H        -1.2111978498        4.4418593823      -21.6434775630
 H         0.0293345531        5.6539970312      -21.8567947381
 H         0.5058699053        4.0090425555      -21.9960959735
 Na       -2.5935875291       -4.1275618698       -2.9677561840
 Na       -3.9896340585        3.9103109024      -22.9558617256
