232

 C       -20.6576250874       -7.6851665147       -4.5448884773
 C       -20.4467707634       -6.4246851749       -3.6756447077
 O       -19.6482426703       -6.3994180622       -2.7246483215
 C       -21.3189304505       -5.1037755743       -4.2483967848
 C       -20.1495007203       -4.1737776425       -4.7913015391
 O       -19.6614190386       -3.3487923068       -4.0269649268
 C       -19.5676998186       -4.2441095760       -6.2252136297
 C       -17.9871402843       -4.3223983615       -6.3071728331
 C       -17.3528923534       -3.9217690222       -5.0282446284
 O       -17.1750021880       -4.7140311628       -4.1476702755
 C       -16.6204016695       -2.4523120046       -4.7666205530
 C       -16.3925411922       -2.5448754803       -3.2309284323
 O       -17.3128764350       -2.2540040932       -2.4521044391
 C       -15.1548988401       -3.1416595564       -2.6517364932
 C       -15.2704280571       -3.2407422118       -1.1215085881
 C       -15.7039632256       -4.6520714270       -0.5928178204
 O       -16.7571372339       -5.1369140224       -0.9081470052
 C       -14.7283568479       -5.4836026698        0.2721550282
 C       -13.3890056765       -5.6713480064       -0.5072553130
 O       -12.6076570373       -4.7802383334       -0.4692212558
 C       -13.1254296856       -7.0113353517       -1.1856180359
 C       -11.6742208919       -7.2741362379       -1.7460806758
 C       -11.6680137902       -8.3455291050       -2.8185999425
 O       -12.1919244687       -8.1165246075       -3.8871426097
 C       -10.5955241016       -9.5198990132       -2.8031994575
 C        -9.1587814108       -8.8367339579       -2.6048448851
 O        -8.5430971804       -8.9137849546       -1.5539755159
 C        -8.3718300896       -8.1804684033       -3.7844656283
 C        -7.4271637350       -7.0501049127       -3.3353527845
 C        -7.6183796111       -5.6090072055       -3.7652219233
 O        -8.7303963911       -5.0788512657       -3.7571903925
 C        -6.3185220679       -4.6637581393       -4.1187886933
 C        -5.6637906108       -5.2693193418       -5.4963144210
 O        -5.7567581307       -6.4421420244       -5.7612767934
 C        -4.8883843828       -4.3263800459       -6.3072226680
 C        -4.1358046666       -5.0536272717       -7.3743978769
 C        -3.3573009292       -4.0904535579       -8.2631686246
 O        -4.0854882975       -3.3410699896       -8.9586680213
 C        -1.7439712748       -4.1037924383       -8.1840444021
 C        -1.0626533288       -5.1441789205       -9.2056299262
 O        -0.1424344070       -5.8041965609       -8.8653600751
 C        -1.5228532082       -5.1431001325      -10.5966156895
 C        -0.5822205956       -5.6964642704      -11.5785851693
 C         0.3987029372       -4.6540966342      -12.1634681131
 O         0.0553669243       -3.4987493035      -12.3564848832
 C         1.8080662493       -5.1432015715      -12.5112458131
 C         2.7183248770       -4.2067310902      -13.3848103395
 O         3.6915787236       -4.6672147831      -13.9285518483
 C         2.5065421664       -2.6952056420      -13.1639271652
 C         3.5074117090       -1.7994261837      -13.8969591996
 C         3.4091440540       -0.5028661513      -13.2171641275
 O         2.2962149793       -0.0701972736      -12.8377008849
 C         4.7395590791        0.3700919217      -12.7075648551
 C         5.0113323375        1.4277276743      -13.8971821832
 O         6.0447302917        1.3718801548      -14.5746880368
 C         3.8645198015        2.3375997129      -14.5407785161
 C         3.7480685093        3.7250194818      -13.8526194158
 C         5.1320131595        4.2733833061      -13.6125044758
 O         6.0720229212        3.8907797422      -14.2352826197
 C         5.4327832898        5.4592730304      -12.6237076745
 C         5.9910076476        6.7041123322      -13.5833975318
 O         5.2213190199        7.5662472042      -13.7933178960
 C         7.4538462637        6.5782110470      -14.1326961968
 C         7.6844146548        7.2905569855      -15.4848098803
 C         7.0048784289        6.5369888343      -16.7160501155
 O         6.4689012853        5.4593264811      -16.5693525934
 C         6.8933542309        7.3771112641      -18.1127579998
 C         8.3814587701        7.1132419031      -18.6731013014
 O         9.2179912484        6.5853366595      -17.9684866796
 C         8.6819019736        7.3207915113      -20.2528434405
 C         9.4854885611        6.1975319783      -20.8862743655
 C         8.6458733824        4.8894007631      -21.1019914509
 O         7.6027763303        4.7429066170      -20.5300697600
 C         9.1704812678        3.7811748756      -22.0540372925
 C         8.6452516898        2.3074087088      -21.4607698825
 O         7.6061796782        1.8246563467      -21.8211590942
 C         9.6573264598        1.6997266086      -20.3813527075
 C         9.0944344760        0.5823601519      -19.4737352925
 C         7.9698852601        1.0798585328      -18.5202502719
 O         8.1888072771        2.0635348267      -17.8347822382
 C         6.5875209214        0.2480976719      -18.3446871118
 C         5.3122592669        1.2934308146      -18.4713536845
 O         5.2285793172        2.1437696471      -17.6535541956
 C         4.2735353528        1.1478362399      -19.5844288151
 C         6.5260361297       -0.7870576336      -19.5850354926
 C         6.7682059015       -0.4030498965      -16.9801932853
 C         8.3691218233        4.0914021979      -23.4053152514
 C        10.6751752137        3.7016932297      -22.3387107947
 C         5.9113143675        6.7517459821      -19.0956547524
 C         6.8680101004        8.9247756652      -17.9783799732
 C         4.0649257775        5.8619337933      -11.8333974046
 C         6.4122906529        4.9961795017      -11.5002693732
 C         4.2114539130        1.1363710999      -11.4695169577
 C         5.8376708928       -0.6038376280      -12.4781639176
 C         2.6442474812       -5.4416355073      -11.1353192334
 C         1.5690428216       -6.5209705535      -13.3144363770
 C        -1.1983018499       -2.7044379733       -8.6240740785
 C        -1.3039723581       -4.3257794514       -6.7462345284
 C        -6.8373385498       -3.2262233329       -4.1949576918
 C        -5.2273886760       -4.9040222378       -2.9428728182
 C       -10.8179253579      -10.6401116160       -1.7986738921
 C       -10.6245716364      -10.1904478776       -4.2360178888
 C       -14.3909667433       -4.5293114495        1.5134206444
 C       -15.3751811683       -6.7564291217        0.8303403181
 C       -15.3812337265       -2.4830840856       -5.6344502072
 C       -17.5917152506       -1.3178194083       -5.1545285809
 C       -22.2363980626       -5.4090949528       -5.3709097335
 C       -22.0852006217       -4.3538355845       -3.1781934430
 H       -21.4073586099       -7.5793066259       -5.3640141097
 H       -20.9623927111       -8.5078105244       -3.9551686409
 H       -19.6468920332       -7.8468011789       -4.9086223741
 H       -19.8858550927       -3.2388071845       -6.5854149586
 H       -20.0562510032       -5.0802337442       -6.7932595780
 H       -17.5854304854       -3.7507405474       -7.1695979965
 H       -17.6519785808       -5.3221147634       -6.5537648709
 H       -14.3038722854       -2.5918318583       -2.9239619230
 H       -14.9615391357       -4.1979646469       -2.9165746171
 H       -16.0244988967       -2.6160789035       -0.7994460335
 H       -14.2945897668       -2.9259913822       -0.6179604245
 H       -13.8387787561       -7.1859773817       -1.9641686277
 H       -13.1951032821       -7.8097185117       -0.4649351100
 H       -10.9760721975       -7.4868836104       -0.9665225443
 H       -11.4137837044       -6.2943541888       -2.2824003063
 H        -9.0352077398       -7.8854669334       -4.6651822924
 H        -7.7677566137       -8.9956755050       -4.2344950853
 H        -6.3690187078       -7.3756190768       -3.3988476943
 H        -7.5821076980       -6.9360481019       -2.2071171146
 H        -4.2688866536       -3.7996483972       -5.6752015281
 H        -5.5242873073       -3.5766062866       -6.6794985395
 H        -4.7524806840       -5.6540491107       -8.0844997473
 H        -3.5592067318       -5.8253269595       -6.8596896946
 H        -1.7197253105       -4.1090268284      -10.8642859925
 H        -2.5910767596       -5.5829339148      -10.7369983572
 H        -1.1192165692       -6.2348603831      -12.4210983033
 H        -0.0645348851       -6.5226870495      -11.0900566596
 H         2.7234487872       -2.6046055157      -12.0953185712
 H         1.5081344233       -2.2720603957      -13.2042801636
 H         3.2018260642       -1.7449556319      -14.9934011820
 H         4.5118010188       -2.2234365997      -13.8345213708
 H         2.9471675395        1.7477451775      -14.3976388999
 H         4.2683306301        2.3748093800      -15.5621751164
 H         3.1518026102        3.4886600684      -12.9444009282
 H         3.3361583771        4.4258361594      -14.5274206147
 H         7.6140212229        5.4908840069      -14.1900976988
 H         8.0551464348        6.9737810630      -13.2815071763
 H         8.6893013015        7.6500375563      -15.8263892894
 H         7.2156192899        8.1822008070      -15.3571108688
 H         9.2500113587        8.2374737832      -20.4367219069
 H         7.7922117661        7.5859356655      -20.8456107953
 H        10.3938671389        5.9697776953      -20.2774501008
 H         9.9633836586        6.4906886419      -21.7843921343
 H         9.7329951808        2.5769585962      -19.7324360188
 H        10.5299056703        1.1839533678      -20.8953415229
 H         9.9488487174        0.3475057687      -18.8379255647
 H         8.8180458454       -0.3826752999      -19.9362511645
 H         3.9739652382        0.0481150356      -19.6742906565
 H         4.8686582716        1.4285240344      -20.4441269128
 H         3.4278056353        1.7282017058      -19.5002072741
 H         5.6640672384       -1.4543871463      -19.4503032243
 H         7.3518737745       -1.4178218527      -19.5243130444
 H         6.4992887383       -0.2548904247      -20.5459158134
 H         6.8563283669       -1.4781835468      -17.0848023679
 H         5.8863527357       -0.3334609222      -16.4142960329
 H         7.6584569217       -0.0126432711      -16.6288237475
 H         8.7947300723        5.0225316556      -23.8236845938
 H         7.3208705310        4.0141526626      -23.3321904819
 H         8.7247086781        3.3911419517      -24.0854828768
 H        10.9689157107        3.0335360721      -23.1523735229
 H        11.3651966384        3.4749414857      -21.5102039464
 H        11.0779458863        4.7305809035      -22.5371083016
 H         4.8420593285        6.9382479923      -18.8763333081
 H         5.9388265879        5.6691179955      -19.1633101824
 H         6.0914249314        7.0010878571      -20.1011006763
 H         7.6131245490        9.3606243415      -17.3016661970
 H         5.8976721204        9.2042292806      -17.6895590895
 H         6.9986105616        9.3008732047      -19.0075975533
 H         4.2626899777        6.5077260846      -11.0152803342
 H         3.8046039146        4.8568002816      -11.4513842808
 H         3.2887217399        6.3632645076      -12.4504229042
 H         6.0600711957        3.9878154922      -11.1926493103
 H         6.5641159711        5.7467207893      -10.6413467624
 H         7.3628329299        4.7839611783      -12.0158809707
 H         4.7503684509        2.0512270020      -11.2113493260
 H         4.2989427497        0.4763793076      -10.6259126113
 H         3.1668706708        1.2503602793      -11.5631310871
 H         5.9188899382       -1.2017059577      -11.5355996715
 H         6.8060271240       -0.1589726218      -12.4367477514
 H         5.8879256505       -1.3425905859      -13.2926710419
 H         2.3949002893       -4.6210666853      -10.3950578252
 H         3.6739608132       -5.3451594297      -11.4148013865
 H         2.3589390879       -6.4109518613      -10.6377453083
 H         1.5735787010       -7.4488301868      -12.6463415551
 H         2.2452046400       -6.6190686390      -14.1480170512
 H         0.6430378237       -6.4725589235      -13.8791865541
 H        -1.6745496078       -1.9915349560       -7.9055804614
 H        -1.4471136450       -2.3233898167       -9.6114919685
 H        -0.1293687858       -2.6495844263       -8.4272428774
 H        -1.2360716585       -5.3984214351       -6.5326816910
 H        -2.0402483574       -3.9563279288       -6.0052437982
 H        -0.3806452077       -3.8502834843       -6.4865689327
 H        -7.7509017827       -3.2634011566       -4.7828667838
 H        -6.1952934904       -2.4886006170       -4.6835544775
 H        -6.9659179711       -2.9036319966       -3.2207306946
 H        -5.7432764094       -4.9315256178       -1.9714729054
 H        -4.6294622186       -3.9971032110       -2.9423999870
 H        -4.4930836497       -5.7324546310       -2.9255336964
 H       -11.5419420302      -11.2988843199       -2.1862165145
 H       -11.0570741281      -10.3789890270       -0.7809653130
 H        -9.8815408020      -11.2012369346       -1.6368003779
 H       -11.6117082842      -10.7061057967       -4.1927437765
 H        -9.8524545261      -10.9615440774       -4.2271289550
 H       -10.4438557084       -9.4895792877       -5.0427159591
 H       -15.1686855671       -4.4867149659        2.1764646627
 H       -14.2104898510       -3.4398581345        1.3062249074
 H       -13.4825106750       -4.7509414460        2.0198803581
 H       -15.1388028659       -7.6196009931        0.2885124133
 H       -16.3905919180       -6.6355541640        0.6047909140
 H       -15.2086467156       -6.8684038302        1.8995101861
 H       -14.8190480466       -3.3639279789       -5.3954654602
 H       -14.7000933024       -1.5951291336       -5.3850407112
 H       -15.6074043691       -2.5698123933       -6.6909942409
 H       -18.4730337138       -1.5564128361       -4.7541911417
 H       -17.7145556978       -1.2306493341       -6.2735767534
 H       -17.1590213288       -0.3863698211       -4.8823871770
 H       -21.8709853638       -5.9474988073       -6.2224858014
 H       -22.8174550317       -4.5126013136       -5.8531898179
 H       -23.0875410842       -6.0506590653       -5.0483717026
 H       -22.2287880953       -3.3131161772       -3.4754940692
 H       -21.5782948063       -4.3384122075       -2.2086772546
 H       -23.0949980461       -4.7304590583       -2.9610781091
 Na      -18.5842951937       -4.2919316641       -2.3219824254
 Na        6.8670105200        3.0242173854      -16.2023639840
