232

 C        -0.6877099732        6.8134761927      -25.2240249868
 C        -1.2984942623        5.9328871354      -24.2528905468
 O        -2.4220736127        6.1178310327      -23.8192431226
 C        -0.5497537148        4.6246244592      -23.7972362677
 C        -1.3825058099        3.3910543926      -24.3143143674
 O        -1.9207177260        2.7395141764      -23.4101738676
 C        -1.3277063428        3.0064726830      -25.8503235239
 C        -2.4468747123        2.0966282634      -26.3060003108
 C        -3.8494303868        2.7711606885      -26.1181816559
 O        -3.8686298152        3.8169543511      -25.4836528720
 C        -5.1266359602        2.0699015905      -26.7023448805
 C        -5.8859114919        1.6051049244      -25.3755782962
 O        -5.6820901474        0.5038056845      -24.8963110022
 C        -6.8002749422        2.7372647416      -24.7466526739
 C        -7.2862300353        2.2672311814      -23.3312479500
 C        -6.7718605350        3.2052647018      -22.2419970764
 O        -6.1779289669        4.2197255367      -22.5698624185
 C        -6.7351719300        2.7857580572      -20.7279005841
 C        -5.2092125250        2.5032613302      -20.4490389837
 O        -4.3592285885        3.1232352806      -21.0612918390
 C        -4.8359768269        1.3141340915      -19.5549194163
 C        -3.3787486076        1.4437822239      -19.1844527309
 C        -3.2235667244        1.9083842606      -17.7135754448
 O        -4.0797658512        2.5133472084      -17.0405592122
 C        -1.8847301923        1.5346827776      -17.0170479846
 C        -1.9167969714        0.0134641603      -16.5790270647
 O        -1.8249293771       -0.7953722310      -17.4869099053
 C        -2.1167094494       -0.1797546285      -15.0885443262
 C        -2.4244645319       -1.6037994203      -14.6769625932
 C        -2.8575937280       -1.6690640087      -13.2443797136
 O        -2.8669967635       -0.6088611546      -12.6394967691
 C        -3.4227428848       -2.9250089868      -12.4483223644
 C        -2.3296752579       -3.2703052598      -11.2521837547
 O        -1.3786819364       -3.8999509681      -11.5937893446
 C        -2.5570759739       -2.4570829023       -9.8846199784
 C        -2.0675593676       -3.2983691051       -8.6562129513
 C        -3.1039631562       -4.4366276983       -8.4942617568
 O        -3.6424026884       -4.8366327119       -9.4581429650
 C        -3.5320296417       -4.9999617310       -7.0133944597
 C        -2.2403325825       -5.2056457601       -6.1930992563
 O        -1.9154831651       -4.3775704471       -5.3539716863
 C        -1.3482322560       -6.3653539405       -6.4185474536
 C         0.0159141542       -6.1821576719       -5.7658304643
 C        -0.1749467899       -6.4602111352       -4.1616870439
 O        -1.1388786410       -7.0117690094       -3.6191282099
 C         0.9571619242       -6.0798344873       -3.1689201341
 C         1.1110242053       -4.5526194392       -3.2028111507
 O         0.2462681367       -3.7195195970       -3.1544376082
 C         2.5229327821       -4.0842500765       -3.2791656992
 C         2.5177684605       -2.5403517810       -3.3743602304
 C         2.0129687779       -1.9747189229       -4.8048100671
 O         1.5305113218       -2.7735625430       -5.5554321093
 C         2.1161905522       -0.3729603887       -5.1004623721
 C         1.0432566354        0.2548288396       -4.1472991816
 O         1.3569281799        0.6218317097       -3.0478315427
 C        -0.4227457103        0.4288839395       -4.6237464924
 C        -1.4528455076        0.7275952389       -3.5213241784
 C        -1.8062892223       -0.6061508912       -2.8438821426
 O        -2.0848274059       -1.5689758471       -3.5287109881
 C        -1.9415924924       -0.6668933304       -1.2150412316
 C        -3.2500689971       -1.3923706443       -0.9172181697
 O        -3.4959904937       -2.4842512144       -1.4082941516
 C        -4.3677240956       -0.6785444185       -0.0657403104
 C        -5.2601647672       -1.7952323663        0.7179730886
 C        -4.4340355877       -2.5504620334        1.6456089920
 O        -3.2240048742       -2.3670110061        1.6775353665
 C        -5.0973207289       -3.8137836924        2.4953652087
 C        -5.0629744274       -4.9597562071        1.4934543372
 O        -5.9586648088       -4.9975723128        0.6581869317
 C        -3.9064110110       -5.8802295214        1.4715695094
 C        -4.0548007682       -7.0276032388        0.5299587806
 C        -3.8429749275       -6.2995228824       -0.9120915976
 O        -3.0174194483       -5.4876591099       -1.1344552445
 C        -4.8825613228       -6.7439242952       -2.1244738921
 C        -5.4897206930       -5.5390581460       -2.7187449760
 O        -4.7408085721       -4.6290270052       -3.0885336463
 C        -7.0142503570       -5.2612481917       -2.4653110558
 C        -7.6266583303       -4.0532712281       -3.1760921848
 C        -8.0003751996       -2.7540037878       -2.4400026359
 O        -7.2722051280       -2.0750929844       -1.7947713795
 C        -9.4857522060       -2.2688176408       -2.6209896548
 C        -9.8187715733       -1.9570093477       -4.0897080446
 O        -9.0868898640       -2.3711448132       -4.9655526142
 C       -11.1362989938       -1.2510203841       -4.3484800077
 C       -10.3968538748       -3.4248922442       -2.0947360727
 C        -9.7387527757       -1.2080742211       -1.5541762494
 C        -4.0252534609       -7.4515230810       -3.2393497202
 C        -5.8775076001       -7.7903359957       -1.6305791030
 C        -4.0688323472       -3.9607052185        3.7087395562
 C        -6.4900058506       -3.4523700098        3.0740481436
 C        -0.8401908838       -1.5921159764       -0.6812820930
 C        -1.8864764650        0.7432908131       -0.6000841232
 C         3.5841491180        0.1163290475       -4.8230502147
 C         1.7728263428       -0.1793719276       -6.6164420865
 C         0.4903958394       -6.5638139171       -1.6816799934
 C         2.3348323915       -6.8767022622       -3.4895966076
 C        -4.6050892011       -4.1292231651       -6.2536741702
 C        -4.1979739804       -6.3782042971       -7.2698407344
 C        -4.9136492129       -2.6956410890      -12.0173014203
 C        -3.3692245992       -4.2485665082      -13.2593066924
 C        -0.6078205932        1.7277019120      -17.8818944874
 C        -1.7607221433        2.4702183287      -15.7810465407
 C        -7.1889875143        3.9137738453      -19.6638187376
 C        -7.7426385503        1.4929389704      -20.4492576991
 C        -5.9604054087        3.1523825146      -27.5312410820
 C        -4.7438208960        0.8349833512      -27.5700537790
 C         0.8590881209        4.5917199741      -24.3840417870
 C        -0.4689355242        4.5420979079      -22.2540271850
 H         0.1013416162        7.3695913512      -24.6845532696
 H        -1.5666468833        7.3533481612      -25.4758795168
 H        -0.3132090289        6.1572401275      -25.9983761570
 H        -0.2746557727        2.6389080922      -26.1002806849
 H        -1.3303890377        3.9742659488      -26.4150267255
 H        -2.5480114777        1.0760851082      -25.7583745577
 H        -2.3844132228        1.9110667157      -27.3940267639
 H        -7.5584716493        3.0457238174      -25.2826965943
 H        -6.1419200675        3.6252079501      -24.6151277482
 H        -6.8249149316        1.2381375220      -23.1401701424
 H        -8.4040733226        2.1934248465      -23.2903700577
 H        -4.8974271762        0.5282177838      -20.2252320679
 H        -5.5485051629        1.1660520760      -18.6908724052
 H        -2.8858273184        2.2460857590      -19.7397085990
 H        -2.9324973047        0.4431839887      -19.3971540931
 H        -2.9298899217        0.4528753377      -14.6781898741
 H        -1.1551306854        0.1764075010      -14.6961454797
 H        -1.5257559570       -2.2037376130      -14.8014062523
 H        -3.1261751593       -2.0182216774      -15.3520256066
 H        -3.6257573377       -2.2086304389       -9.8669533288
 H        -2.1521226557       -1.3982186757      -10.0983130120
 H        -2.0322260004       -2.6561157110       -7.7144806773
 H        -1.0892274874       -3.8221775386       -8.7550394245
 H        -1.0649536873       -6.6019259050       -7.4889304365
 H        -1.9205020356       -7.1818913779       -5.9190116080
 H         0.4102562849       -5.2286146647       -5.8779828372
 H         0.7155139513       -6.8735274510       -6.2503328631
 H         3.0513689222       -4.4715528099       -4.1725996504
 H         2.9529414817       -4.3770078595       -2.3197573483
 H         3.5582121845       -2.1827310444       -3.0252280984
 H         1.7176370908       -2.2237981920       -2.5940807756
 H        -0.7133672715       -0.4940848890       -5.0581371507
 H        -0.4140616641        1.1750707670       -5.3141993123
 H        -2.3735812656        1.1979932100       -4.0110289213
 H        -0.9199659794        1.4889804987       -2.8777889418
 H        -5.0693970683       -0.1412946868       -0.7996431851
 H        -3.9435697116        0.0379873025        0.6188757416
 H        -5.7845781936       -2.3526911557       -0.0553995486
 H        -6.0489631709       -1.2928644893        1.3379144357
 H        -3.5914149790       -6.1631228802        2.4849100345
 H        -3.1120078339       -5.2369442208        1.2450074346
 H        -4.9425103159       -7.7128039506        0.7424693771
 H        -3.2294701702       -7.7025448069        0.6984016247
 H        -7.0926058624       -5.2130604269       -1.4107987466
 H        -7.5722512295       -6.1092411181       -2.7873961485
 H        -8.6275516521       -4.3474228107       -3.7064579658
 H        -7.0250852181       -3.8163592010       -4.0613112354
 H       -11.9661626206       -1.8849801031       -3.9313293741
 H       -11.4019451992       -0.8523918912       -5.3844342109
 H       -11.0516312630       -0.3152634318       -3.7794617003
 H       -10.5505855617       -4.2756942364       -2.8403373151
 H       -11.3048520678       -2.9789698991       -1.9219149857
 H       -10.0682992674       -3.8271381529       -1.1329863178
 H        -9.7268553039       -1.7454156616       -0.6007388546
 H       -10.7481167479       -0.8887036080       -1.6483073880
 H        -8.9008516524       -0.4445016080       -1.6078538073
 H        -4.7113776574       -7.4407103015       -4.0991435688
 H        -3.8754907393       -8.4979870902       -3.0880425452
 H        -3.2319817587       -6.8726633523       -3.5492530564
 H        -6.4526192781       -8.1256431336       -2.4681520011
 H        -6.5156577736       -7.3254025339       -0.8425778749
 H        -5.3103581757       -8.6331318192       -1.3642467847
 H        -3.9211438660       -5.0110746339        4.1052226496
 H        -4.4809672854       -3.4160008627        4.5249779260
 H        -3.1162968781       -3.5949308067        3.4849863649
 H        -6.5949241447       -2.4002302402        3.3512147933
 H        -6.4250691827       -4.0812152511        3.9629693172
 H        -7.4484079489       -3.6769073283        2.4995795125
 H         0.1248865569       -1.1356358587       -0.7810955958
 H        -0.9295965242       -2.4392388519       -1.3048677429
 H        -1.0421606313       -1.8061290279        0.3900318922
 H        -1.0490044198        1.2309297138       -1.0244967812
 H        -1.8855433054        0.7492765598        0.4577335531
 H        -2.7090175053        1.2440179572       -1.0112709527
 H         3.6775293523        1.1631730310       -5.1208767717
 H         4.1859754948       -0.4365627361       -5.5138613812
 H         3.8245619504       -0.1546375080       -3.7575179462
 H         0.7195965224       -0.4351977303       -6.8078923384
 H         2.3071039003       -0.9626941686       -7.1894544313
 H         2.1460418232        0.8043089041       -6.9054028182
 H         1.3471848015       -6.4375502320       -1.0734378787
 H         0.0172884126       -7.5378841451       -1.5362701246
 H        -0.3005331218       -5.9189247214       -1.1792100715
 H         2.2667339610       -7.8868736032       -3.1235555236
 H         3.1800502590       -6.4662104405       -3.0206218938
 H         2.5071711518       -6.7886348092       -4.5828344176
 H        -4.2037006042       -3.1217914918       -6.2473806819
 H        -4.5756352166       -4.5558457682       -5.2715757066
 H        -5.5640236529       -4.1489788453       -6.7621105931
 H        -4.8079827951       -6.6632978592       -6.4357448515
 H        -3.3950395333       -7.1640214652       -7.2369026799
 H        -4.7380022739       -6.4446303722       -8.2440490804
 H        -5.1834768608       -3.2922650478      -11.0577004904
 H        -5.7007253681       -2.9688307294      -12.7795079178
 H        -5.1509824370       -1.7413907398      -11.6933746531
 H        -3.8043457198       -5.0491598202      -12.7223389116
 H        -2.4586150270       -4.6001265220      -13.7471423137
 H        -4.1037727145       -4.1391716697      -14.0894313121
 H        -0.6128703469        2.6784505796      -18.4034432778
 H        -0.5157844382        1.0156928521      -18.6455311485
 H         0.3258198220        1.5922102346      -17.2736586073
 H        -2.6763490203        2.9397961431      -15.3540938108
 H        -1.1794286839        3.3458088266      -16.2218239784
 H        -1.1205124936        1.9489434645      -15.1040653188
 H        -8.2411201450        4.0516139598      -19.9207471174
 H        -6.6453714335        4.7829415926      -19.7317345179
 H        -7.0191720460        3.4746780689      -18.6684975571
 H        -8.6988132447        1.7536952829      -20.8140566268
 H        -7.7356376148        1.0731885119      -19.3949800150
 H        -7.4018895074        0.6843234072      -21.0976966211
 H        -6.2387601245        3.9596464841      -26.9465284651
 H        -6.8846448901        2.8557041376      -27.8880245090
 H        -5.3215337215        3.4379820989      -28.3588657194
 H        -4.0917996006        1.2166264066      -28.3082049352
 H        -5.7019643704        0.4814586073      -27.9009503072
 H        -4.4563315694        0.0655586457      -26.8793092352
 H         1.3698513844        5.5941348866      -24.3361256491
 H         0.9590625069        4.3681931987      -25.4857355886
 H         1.4874246430        3.9142718036      -23.8581461718
 H        -1.5276874854        4.7212174341      -21.9181079607
 H         0.1799621364        5.2748850515      -21.8588839022
 H        -0.2625947297        3.5725424781      -22.0359087528
 Na       -2.2985424518       -3.9334659146       -3.0439383743
 Na       -3.6968066345        4.5827373923      -22.7300037703
