232

 C        -0.6523240450        6.8845333692      -25.2771643467
 C        -1.3451758538        5.8198757828      -24.3785257922
 O        -2.5365068487        5.9441187548      -24.0283423450
 C        -0.5181066243        4.5815429376      -23.8872779220
 C        -1.5455015866        3.3871556172      -24.2559278696
 O        -2.2942431277        2.8737546920      -23.4682598272
 C        -1.5529481086        3.0344908272      -25.8012717209
 C        -2.6420615972        2.1315230779      -26.2880063223
 C        -4.1204665073        2.6596004842      -26.0136147055
 O        -4.4055605867        3.5899011215      -25.3592494978
 C        -5.4465652102        1.8542952006      -26.6920217280
 C        -6.3898889797        1.4880187677      -25.4222278150
 O        -6.5335340385        0.3204749434      -25.1163533157
 C        -7.1469039360        2.5852858017      -24.6422902085
 C        -7.2776110020        2.2063985731      -23.1721726202
 C        -6.6136035787        3.2356649867      -22.2472978618
 O        -6.2567218730        4.3395808691      -22.6483258749
 C        -6.6137132383        3.0091606019      -20.6913208765
 C        -5.0267188514        2.4892374326      -20.4438360492
 O        -4.0909738093        2.9720525434      -21.0685998342
 C        -4.8905516226        1.2559995464      -19.5164524225
 C        -3.4869636420        0.9475266880      -18.8524817581
 C        -3.2548054820        1.6108779892      -17.5464968575
 O        -4.1536699386        2.2614066663      -17.1265472897
 C        -1.8987237449        1.5604317957      -16.8592086521
 C        -1.7619267944        0.1878283830      -16.2046689895
 O        -1.9078042829       -0.7774708040      -16.9196893388
 C        -1.4529595180       -0.1021295919      -14.6768165892
 C        -1.9716946798       -1.4246717623      -14.2065280869
 C        -2.9916461433       -1.2539689709      -13.1330166599
 O        -3.4475890034       -0.2038230844      -12.7493115198
 C        -3.3695564898       -2.5592560314      -12.3787438862
 C        -2.2050272676       -2.7669353653      -11.3323971019
 O        -1.3400290311       -3.6379277298      -11.4981047431
 C        -2.2734409764       -2.0927052437       -9.9028248853
 C        -2.0592114774       -2.9753591749       -8.6762085726
 C        -3.1013665628       -4.2493166159       -8.6426576589
 O        -3.6450565235       -4.6713416347       -9.6685189936
 C        -3.5425504585       -4.9459542659       -7.1550426677
 C        -2.2621515625       -4.8871398079       -6.2163420607
 O        -2.1012756103       -4.0247176640       -5.3619207364
 C        -1.2412209079       -5.9850326588       -6.4894438079
 C         0.0098928281       -6.0317691543       -5.5697586134
 C        -0.2289432315       -6.5101545097       -4.0781246939
 O        -1.2856275304       -6.9926894106       -3.7804204724
 C         0.9891693514       -6.1960676685       -2.9741482291
 C         1.1328972162       -4.6371774491       -2.9041533897
 O         0.2012936510       -3.9050200574       -2.5674594111
 C         2.4984757658       -3.9825986628       -3.1669183475
 C         2.4275684903       -2.4780051990       -3.3380359329
 C         1.9376842184       -2.0712108050       -4.6850910575
 O         1.6148370537       -2.9022006500       -5.5724121840
 C         2.0471984572       -0.5102683433       -5.0417745593
 C         1.0511703970        0.2570530834       -4.0216969196
 O         1.3065906692        0.5285507763       -2.8677308760
 C        -0.3479343576        0.4578134109       -4.5514326266
 C        -1.4313521296        0.7994146934       -3.4635046258
 C        -1.9180746589       -0.5586445125       -2.7542832098
 O        -2.0757917671       -1.5284301916       -3.4536158505
 C        -1.9837746581       -0.6481112471       -1.1479167804
 C        -3.4471098818       -1.5055432368       -0.9132570799
 O        -3.5045810203       -2.6657997167       -1.2563336267
 C        -4.5155846155       -0.8126992730       -0.0676948918
 C        -5.1841845834       -1.8373593989        0.8048151864
 C        -4.2730807257       -2.6251534443        1.7717913611
 O        -3.1144333926       -2.4534265934        2.0257936502
 C        -4.9013469223       -3.9306713778        2.4439237809
 C        -4.8657241166       -5.1732264122        1.4297998589
 O        -5.8582363760       -5.6637204418        0.9536766082
 C        -3.4085547466       -5.7941951946        1.1532092981
 C        -3.5824216266       -6.9638464014        0.0694702860
 C        -3.5142868948       -6.3817667194       -1.3664292158
 O        -2.4953752495       -5.8141948233       -1.6092805005
 C        -4.6212070406       -6.7195017885       -2.4068560108
 C        -5.2051898792       -5.3898503538       -2.8964980054
 O        -4.5372171080       -4.4364671568       -3.3818684662
 C        -6.7012350889       -5.1358155670       -2.6761702874
 C        -7.1898759661       -3.8484573606       -3.3527167915
 C        -7.8937386119       -2.8241515520       -2.4197664939
 O        -7.2718423610       -2.3058530454       -1.4840466686
 C        -9.4424032395       -2.4492845123       -2.6669814337
 C        -9.7700952206       -2.0377562505       -4.1607107753
 O        -8.9046794204       -2.2610976052       -4.9697221155
 C       -11.0757805855       -1.2739069343       -4.5554868501
 C       -10.2763714341       -3.8127388073       -2.4321936333
 C       -10.1456971455       -1.3861182594       -1.6624201277
 C        -4.0671918199       -7.4425486769       -3.6389944782
 C        -5.7122207655       -7.6665409426       -1.8573799846
 C        -4.2729214844       -4.2634114429        3.7503856613
 C        -6.4244351806       -3.7268973397        2.8891434180
 C        -0.8716649516       -1.5756388826       -0.6878753641
 C        -2.0345704993        0.6648157385       -0.3144168179
 C         3.4987337798        0.0427334458       -4.5560623839
 C         1.7543002099       -0.2112503446       -6.5138917717
 C         0.5415168030       -6.9956372106       -1.7761552883
 C         2.2686221952       -6.8199566632       -3.5723696693
 C        -4.5203464362       -3.8795820120       -6.5162306480
 C        -4.1767649956       -6.3771006226       -7.1783131758
 C        -4.7534332022       -2.5369513606      -11.6385536516
 C        -3.3369752508       -3.9329416589      -13.3743753318
 C        -0.7576467465        1.7372829115      -17.8505104903
 C        -1.7818708512        2.7754812153      -15.9512390477
 C        -6.6781024268        4.3238440240      -19.7427069240
 C        -7.7522356279        2.0673856632      -20.2397104843
 C        -6.0607986997        2.8532989549      -27.6369433283
 C        -5.0570324096        0.6003465930      -27.6277023569
 C         0.8113751628        4.4439891213      -24.5872068769
 C        -0.2735926558        4.4970949444      -22.3539167430
 H         0.3385256880        7.1939122089      -24.9484344391
 H        -1.4340812652        7.6478638524      -25.2296258788
 H        -0.7202837421        6.5109126613      -26.3260955630
 H        -0.6107198399        2.4865696658      -26.0245293411
 H        -1.4263939447        4.0992632711      -26.2889285247
 H        -2.5944603732        1.1758949670      -25.7699041611
 H        -2.5861405893        1.8189192282      -27.3773968853
 H        -8.2254731382        2.5569989276      -25.0677873166
 H        -6.8723505366        3.5542418703      -24.7021365932
 H        -6.9324279034        1.1476363921      -22.9977595543
 H        -8.3279722632        2.0919740771      -22.7539157212
 H        -5.2672106967        0.4747280895      -20.1954195810
 H        -5.6013164190        1.4434744275      -18.7252670323
 H        -2.7327517341        1.2465953275      -19.5902100957
 H        -3.4895125773       -0.1477835740      -18.7476014508
 H        -1.7429803535        0.7480117269      -13.9840111153
 H        -0.4097729598       -0.0727365337      -14.4974596394
 H        -1.1680181456       -2.0470233435      -13.8927900928
 H        -2.3945029432       -2.0427776016      -14.9769942639
 H        -3.2912551008       -1.5212903280       -9.9662145301
 H        -1.3899806926       -1.4726391037       -9.9913264611
 H        -2.2548752626       -2.3348224550       -7.8400723571
 H        -0.9506465397       -3.4697260263       -8.6208038667
 H        -0.9591200207       -5.7915482157       -7.5674046265
 H        -1.7412074406       -6.9972464047       -6.4109361168
 H         0.5779356914       -5.1077945704       -5.5164675388
 H         0.6506469233       -6.7646149347       -5.8985401073
 H         2.9613246252       -4.3846462443       -4.0972526298
 H         3.1848774326       -4.3277027724       -2.3912159638
 H         3.4881474607       -2.1455515782       -3.1007029423
 H         1.8488666311       -1.9374005583       -2.4738069572
 H        -0.6516780498       -0.3859081284       -5.0304940354
 H        -0.3325342169        1.2300853955       -5.2971837855
 H        -2.3037822765        1.2460914684       -4.0835636737
 H        -0.9935991549        1.5098292857       -2.7014356593
 H        -5.2405510919       -0.4501557304       -0.7460101806
 H        -4.0335015079        0.0168057560        0.5592380371
 H        -5.5970858978       -2.5742064251        0.1058198796
 H        -5.9698134202       -1.4000360455        1.4339411891
 H        -2.9411611478       -6.1160783633        2.0940731230
 H        -2.8220741078       -5.0049785473        0.6408658775
 H        -4.4233116983       -7.5995721845        0.2565809775
 H        -2.6060746040       -7.5257305336        0.1560113669
 H        -6.7855023962       -5.0780898833       -1.6236799712
 H        -7.2926933567       -5.9644556531       -3.0036445928
 H        -7.8255179495       -4.0324731352       -4.1545804022
 H        -6.3733296063       -3.1527432966       -3.7595541125
 H       -11.1354994899       -0.2166017069       -4.1721759558
 H       -11.9266245120       -1.7765944985       -4.0833157831
 H       -11.2145704728       -1.1039792183       -5.6687808104
 H       -10.0360446338       -4.5557700133       -3.1244442262
 H       -11.3874101193       -3.5100253402       -2.5554963242
 H       -10.1274173999       -4.2133476757       -1.4525870596
 H        -9.6165738924       -1.5445604135       -0.7335007614
 H       -11.2551525375       -1.5598123128       -1.5244729284
 H        -9.9603440792       -0.4252177626       -2.0528699839
 H        -4.8141678171       -7.4297153197       -4.3537308951
 H        -3.6353265548       -8.3735505598       -3.4427866818
 H        -3.1951358256       -6.8803624187       -3.9951855646
 H        -6.4297342987       -7.9633423424       -2.5899752313
 H        -6.2450108179       -7.2330245267       -1.0037208149
 H        -5.1169750581       -8.5197804232       -1.4584665545
 H        -4.7749884640       -5.0124032278        4.2323840902
 H        -4.2562884154       -3.4548845181        4.4490389222
 H        -3.2057876718       -4.4530817995        3.6661930997
 H        -6.6614108266       -2.8922646672        3.6028163765
 H        -6.7954115078       -4.6875590956        3.3134403402
 H        -7.1310108770       -3.6431753968        2.0588636235
 H        -0.0859902814       -1.5409525908       -1.4022698107
 H        -1.3124500965       -2.5438957094       -0.4522148785
 H        -0.5305717107       -1.2626934625        0.2841197121
 H        -1.1053490852        1.1869749475       -0.3625885439
 H        -2.0926194713        0.3510823129        0.6759832366
 H        -2.7799903173        1.3341466439       -0.6818839472
 H         3.3810546184        1.0986134207       -4.4731857933
 H         4.3347573129       -0.3168590866       -5.2019902319
 H         3.5453376415       -0.3845697313       -3.5961546675
 H         1.0433726546       -0.9575100739       -6.8514302591
 H         2.6902759497       -0.1540840558       -7.0294992364
 H         1.2032801628        0.7344905768       -6.5677209009
 H         1.1239508842       -6.9575663521       -0.8258364303
 H         0.4796390353       -8.0297932986       -2.0371012705
 H        -0.3154250028       -6.5100323343       -1.4160766131
 H         1.9687798308       -7.8436628865       -3.6046589033
 H         3.0859094637       -6.6592979900       -2.8693342118
 H         2.4241719455       -6.5901662694       -4.5629741857
 H        -4.0263402889       -2.9798885765       -6.2067664876
 H        -4.9190734955       -4.3110764210       -5.6166476365
 H        -5.3453285232       -3.8824180752       -7.2384700530
 H        -4.1887729012       -6.7067071131       -6.1237369765
 H        -3.7600658747       -7.0843181906       -7.8746469317
 H        -5.2082975699       -6.2858810690       -7.4550435893
 H        -4.8213821595       -3.3297116928      -10.9704596939
 H        -5.6106889926       -2.4263765798      -12.2719710973
 H        -5.0022180742       -1.5781286699      -11.0224909575
 H        -2.7538835671       -3.7685619215      -14.3040844361
 H        -4.3026843855       -4.3867921794      -13.5871678476
 H        -2.7699277177       -4.6877283113      -12.8954493994
 H        -0.8137946025        2.7190450273      -18.3719463086
 H        -0.5869101424        1.0750198995      -18.7000187662
 H         0.1046765889        1.8543636377      -17.2978857585
 H        -2.4301244216        2.6399757680      -15.1027222007
 H        -2.0265811885        3.6487923119      -16.5734168663
 H        -0.7160730889        3.0735386649      -15.6595251321
 H        -7.5486133255        4.8459304758      -19.9209274639
 H        -5.7077656698        4.8680648390      -19.8689412410
 H        -6.7327953374        3.9107245948      -18.7764055841
 H        -8.7166661535        2.5866969564      -20.4503608712
 H        -7.6471985264        2.0313544238      -19.1914534035
 H        -7.7274971445        1.0780049702      -20.7234803206
 H        -6.2429063181        3.7337340816      -27.0445811611
 H        -6.9485148128        2.4069053410      -28.0331497889
 H        -5.5667230193        3.1300889506      -28.5034268940
 H        -4.2770215956        0.9201027598      -28.2748578371
 H        -5.9645280229        0.4147715885      -28.1637561459
 H        -4.8277218691       -0.1717066025      -26.8942827598
 H         1.7036251025        4.7903310892      -24.0760044136
 H         0.6972837207        5.0124896513      -25.4926879232
 H         1.0899924303        3.3696197214      -24.7831167851
 H        -1.1589456722        4.5974878840      -21.8743622823
 H         0.3781608808        5.3231242185      -22.1291018046
 H         0.2496802163        3.5396232787      -22.0878529487
 Na       -2.0854622139       -3.9147627511       -3.0527587446
 Na       -4.3290039833        4.4773216796      -23.1813305567
