232

 C        -0.7757787515        6.9408370426      -25.1300417196
 C        -1.4291268399        5.8295171798      -24.3007868023
 O        -2.6227981322        5.8382821958      -24.0752235013
 C        -0.6008641186        4.5145757121      -23.8906595531
 C        -1.5960967364        3.3229599861      -24.3195219555
 O        -2.2613671897        2.7597904237      -23.4931232890
 C        -1.7536371594        3.0313548771      -25.8162610460
 C        -2.8269657948        2.0323285879      -26.2031371899
 C        -4.2233621333        2.5438303384      -26.0228058494
 O        -4.3956635315        3.5748564032      -25.3471675575
 C        -5.5289351514        1.8725377217      -26.6274973957
 C        -6.4621614098        1.4501268089      -25.4986719643
 O        -6.5906753291        0.2937127708      -25.0877398161
 C        -7.1067599743        2.6170827124      -24.7571947494
 C        -7.2595331786        2.2029383749      -23.2143073564
 C        -6.7072780411        3.2552148213      -22.1612310415
 O        -6.2612837394        4.3117618198      -22.6172628542
 C        -6.5257580312        2.9253414572      -20.6481305789
 C        -5.1200866497        2.4306814314      -20.4850704214
 O        -4.2273389774        2.9693098930      -21.1661998943
 C        -4.9493411024        1.2695240070      -19.5062037967
 C        -3.5084744762        0.8876398627      -19.0291372116
 C        -3.3034808056        1.6037948537      -17.5778453148
 O        -4.1775673766        2.2860950229      -17.0939626329
 C        -1.8950680151        1.5754034579      -16.7398947869
 C        -1.7615957578        0.1909904216      -16.0442326293
 O        -1.8952604131       -0.7969267998      -16.7546018762
 C        -1.4098937255        0.0614299166      -14.5911473525
 C        -1.8410325025       -1.3262521067      -14.1751586437
 C        -2.9584443057       -1.3324164058      -13.1211701613
 O        -3.4304112664       -0.2636310955      -12.7456924213
 C        -3.3747839904       -2.6103539386      -12.3339322868
 C        -2.2685010167       -2.8273431466      -11.2743337130
 O        -1.2779796142       -3.4208042430      -11.5271844739
 C        -2.3110855757       -1.9722413174       -9.9062103328
 C        -2.0450980156       -2.9607646203       -8.7700010450
 C        -3.0527467972       -4.1532937781       -8.5178024048
 O        -3.4751932225       -4.6326593934       -9.5478898360
 C        -3.4965971738       -4.8205451819       -7.1276833534
 C        -2.2516337884       -4.8493041776       -6.2046247227
 O        -2.1883369039       -4.0115022094       -5.3388376026
 C        -1.2318752675       -6.0056705085       -6.4065379634
 C         0.0950518880       -5.8423662139       -5.6661549841
 C        -0.1341253613       -6.3836083308       -4.2931139108
 O        -1.0793972559       -7.0831392360       -3.9109451007
 C         0.8905154494       -6.1678159584       -3.1683524205
 C         1.0466707676       -4.6622360953       -2.7569281361
 O         0.1213594563       -3.9315505895       -2.4662709916
 C         2.4353086219       -4.0495910385       -3.0798174163
 C         2.4077034851       -2.5103273691       -3.2535478899
 C         1.9836173819       -2.0740539809       -4.6519767815
 O         1.6062813901       -2.7940974570       -5.4937231351
 C         1.9812320480       -0.4519800685       -4.9608821138
 C         0.9820669590        0.1934241759       -3.9238826581
 O         1.4397890537        0.3576766488       -2.8014123243
 C        -0.4123761063        0.3362977008       -4.4788069312
 C        -1.4452244085        0.6613489588       -3.3816971398
 C        -1.8384289701       -0.6359112248       -2.7582166070
 O        -2.0107302559       -1.5690793391       -3.5366631880
 C        -2.0203908628       -0.7048004702       -1.1651336095
 C        -3.2897455527       -1.5614761294       -0.8390683846
 O        -3.3467715007       -2.6639615296       -1.3170328811
 C        -4.4930477172       -1.0092184775       -0.0497680417
 C        -5.2311495871       -1.9767355648        0.9044562919
 C        -4.2947248197       -2.7779555074        1.7743299227
 O        -3.1436944992       -2.4351679309        1.8745729452
 C        -4.9264925016       -4.0528465852        2.4830420532
 C        -4.7697277083       -5.1325044196        1.4420939688
 O        -5.7362789588       -5.7408877310        0.9063080724
 C        -3.3376468858       -5.5722841425        1.1181088968
 C        -3.4823871635       -6.8145928137        0.1755553911
 C        -3.4556568157       -6.4529579954       -1.3358979385
 O        -2.5501666277       -5.7342404439       -1.6943900998
 C        -4.6726104838       -6.7857986622       -2.4168724578
 C        -5.2019952230       -5.3162186951       -2.8902213745
 O        -4.4322859143       -4.6010280324       -3.4065630718
 C        -6.7177757758       -5.0193007845       -2.7082316525
 C        -7.1193976781       -3.7121980941       -3.3854261220
 C        -7.9871347061       -2.7587442690       -2.4388374623
 O        -7.3996254153       -2.2794377200       -1.4954060087
 C        -9.5803407679       -2.4596411311       -2.6553676585
 C        -9.7816714948       -2.0123613251       -4.0735819013
 O        -8.9054975660       -2.1707652955       -4.8816269263
 C       -11.0440385087       -1.3351961518       -4.5523106333
 C       -10.3544573102       -3.8470722105       -2.5760835730
 C       -10.1611450297       -1.3598878692       -1.7449903466
 C        -4.0602566857       -7.4605484535       -3.7655046980
 C        -5.7307412346       -7.7347605204       -1.6867352875
 C        -4.1437216267       -4.4653715358        3.7224347359
 C        -6.5374190681       -3.8346913459        2.7024338104
 C        -0.8385643796       -1.5492927667       -0.5933113691
 C        -2.0056328793        0.6418378008       -0.4764239571
 C         3.3816801089        0.0777625878       -4.5609572431
 C         1.7087696636       -0.2082046426       -6.5003283917
 C         0.5163439732       -6.8524345445       -1.8147744090
 C         2.3436297603       -6.8010437015       -3.6571578834
 C        -4.5658937276       -3.8990956332       -6.4565349298
 C        -4.1232238839       -6.1555793486       -7.4435415759
 C        -4.6678921238       -2.4951674184      -11.6293774971
 C        -3.4227012770       -3.7182575576      -13.5303766111
 C        -0.7851468569        1.5689248376      -17.8511750034
 C        -1.8087945015        2.8217671248      -15.7849352387
 C        -6.4410720849        4.4013848519      -19.9905909724
 C        -7.6662670542        2.0886933811      -20.1807431401
 C        -6.1543921900        2.8795508101      -27.6172295777
 C        -5.1657079618        0.5740427344      -27.4434714380
 C         0.7664333498        4.3656867242      -24.6805642787
 C        -0.2409697369        4.5313718806      -22.3387134726
 H         0.2288849503        7.1642018444      -24.7609276367
 H        -1.4908105908        7.7849744922      -24.9685660212
 H        -0.8445681681        6.7084737063      -26.1912786985
 H        -0.8273865918        2.5732223509      -26.2602935880
 H        -1.8723560216        4.0213431036      -26.3194225115
 H        -2.7736227527        1.0636775311      -25.7938986636
 H        -2.7667561890        1.8706719196      -27.2710082632
 H        -8.1963012058        2.8074150634      -25.0685030776
 H        -6.6273129699        3.6085297259      -24.8422432875
 H        -6.8011722885        1.2508312732      -23.0544129487
 H        -8.2747529647        1.9208683497      -23.0019496041
 H        -5.5607826680        0.4574630803      -20.0891397315
 H        -5.4905869455        1.5468430727      -18.6244237746
 H        -2.7421990834        1.2453898651      -19.6914732262
 H        -3.5157185282       -0.1569047673      -19.0310400523
 H        -2.0004575548        0.8133544837      -14.1138029158
 H        -0.4320556036        0.4480032481      -14.2868593012
 H        -1.0504024811       -1.8862509091      -13.7377569572
 H        -2.0474637900       -1.9211349327      -15.0373704366
 H        -3.2568949208       -1.4721644812       -9.7938129658
 H        -1.4174985280       -1.3748507580      -10.0553778923
 H        -1.9188146531       -2.2815060189       -7.8255555881
 H        -1.1719667272       -3.5166129386       -8.9817414264
 H        -0.9955377035       -5.9023169753       -7.4870686198
 H        -1.7062754794       -7.0151821540       -6.2151568286
 H         0.4382501483       -4.8068190002       -5.5606687938
 H         0.8931763717       -6.4176019132       -6.0889610539
 H         2.8294660839       -4.4692326783       -3.9718699455
 H         3.1130508031       -4.4298921731       -2.3246087065
 H         3.3984924465       -2.1468815376       -2.9177440721
 H         1.7969756201       -2.0562629754       -2.4729606552
 H        -0.7103764039       -0.5567482825       -5.1027753837
 H        -0.3517274131        1.1746484626       -5.1768601990
 H        -2.4025051090        1.0472336432       -3.8375584276
 H        -0.9729932216        1.3541588644       -2.6537729967
 H        -5.1645376460       -0.5503840459       -0.7419142152
 H        -4.0062100431       -0.2951086981        0.5839852554
 H        -5.7543419321       -2.6803389723        0.2623174164
 H        -5.8697275153       -1.4805856710        1.5765949918
 H        -2.8768259915       -5.8926253056        2.0818397232
 H        -2.8155478885       -4.6490367372        0.6057150833
 H        -4.4405814680       -7.2665533274        0.4394178130
 H        -2.6060584240       -7.4273597853        0.4220757643
 H        -6.9401101873       -5.0108442411       -1.6270158326
 H        -7.3069250557       -5.8654234881       -3.1118419511
 H        -7.6383350188       -3.8914159555       -4.2941695107
 H        -6.3193323120       -3.0439130387       -3.5845167483
 H       -10.9456603657       -0.2272834965       -4.7566746466
 H       -11.7955696894       -1.4741804827       -3.8596998072
 H       -11.3263277542       -1.6743405738       -5.5304388987
 H        -9.9361865569       -4.4435446452       -3.3742918586
 H       -11.4296378170       -3.7697047393       -2.7206462371
 H       -10.1030926710       -4.3760686981       -1.6315801787
 H        -9.8037337138       -1.5839588524       -0.6808824156
 H       -11.2796453046       -1.4018969035       -1.8348119475
 H        -9.8067160878       -0.3743030191       -2.1245399606
 H        -4.8231084891       -7.5953395038       -4.4888100766
 H        -3.4698722047       -8.3412921022       -3.5025855936
 H        -3.2284184467       -6.8672815847       -4.1661755506
 H        -6.5330516772       -7.9237101103       -2.4460626119
 H        -6.2046428027       -7.1741273573       -0.9358463957
 H        -5.2863878331       -8.5966940653       -1.1344845440
 H        -4.3324137565       -5.5197851182        3.9363359134
 H        -4.2825009173       -3.9878011884        4.7166114944
 H        -3.0744575410       -4.2767024834        3.5482091902
 H        -6.7478164816       -2.8754210911        3.2380984695
 H        -6.9996213615       -4.6292114508        3.3380328576
 H        -7.1952567905       -3.9299159506        1.8158702709
 H        -0.1273422698       -1.6790236356       -1.4058932477
 H        -1.1933527518       -2.4358511339       -0.0893936890
 H        -0.3978151864       -1.0313592871        0.1753699220
 H        -1.0642246889        1.0608751256       -0.6185289383
 H        -2.0221866170        0.4656847334        0.6191584150
 H        -2.7739500160        1.2986192618       -0.8320980208
 H         3.2523647623        1.1830399624       -4.7733094898
 H         4.1026129235       -0.4346143820       -5.2233644044
 H         3.5295183450       -0.1441594050       -3.5185999948
 H         1.0936288016       -1.0755867344       -6.7724781127
 H         2.7084118116       -0.1291000750       -6.9811614229
 H         1.0473547000        0.6547371050       -6.6955136324
 H         1.2732197836       -6.7960349940       -1.0406125267
 H         0.2911950891       -7.9068767459       -1.8892147844
 H        -0.1585550453       -6.1815839766       -1.3204760394
 H         2.2728110834       -7.8797389741       -3.5865718214
 H         3.0928672766       -6.3178068309       -3.0111862933
 H         2.4530639971       -6.6579872551       -4.7619474710
 H        -4.3195613744       -2.8220069888       -6.4886335333
 H        -4.6727950679       -4.1127675659       -5.4246076004
 H        -5.3913651074       -4.2262458486       -6.9092275260
 H        -4.5120338484       -6.4661589998       -6.4333966900
 H        -3.4582650259       -6.8863081642       -7.8984788154
 H        -5.0118709752       -6.0869800331       -8.1348560832
 H        -4.8049273693       -3.1650849374      -10.7838357458
 H        -5.5673451200       -2.4075136577      -12.2632080289
 H        -4.7393118405       -1.4511090319      -11.2171995407
 H        -3.0873893511       -3.2671291081      -14.4899068006
 H        -4.3634576622       -4.2328911187      -13.6124757452
 H        -2.6740686337       -4.4942745025      -13.3058263053
 H        -0.7265773962        2.3652743348      -18.5006143662
 H        -0.7800312452        0.6926731684      -18.5180350630
 H         0.1973555559        1.5782262411      -17.3640815915
 H        -2.6514543533        2.8737455319      -15.0411437050
 H        -1.7080405282        3.6728148249      -16.3736080803
 H        -0.8663405113        2.8697443584      -15.2511785529
 H        -7.2791487885        4.9370477472      -20.4330549212
 H        -5.5143242206        4.7575608455      -20.3938600997
 H        -6.4989478877        4.3419801241      -18.9565066620
 H        -8.5859488692        2.7340218512      -20.4870581676
 H        -7.6609654878        2.1909969765      -19.0975061969
 H        -7.7099453335        1.0656874281      -20.5726210444
 H        -6.4653946667        3.7353884922      -27.0371560529
 H        -6.9609197921        2.3068590173      -28.0677599411
 H        -5.6283637703        3.3309180427      -28.4120100847
 H        -4.3459960786        0.7899322397      -28.2171760691
 H        -6.1542092135        0.4059031731      -27.9417077757
 H        -4.9390731555       -0.1120137141      -26.6537845811
 H         1.5963329215        4.9778556904      -24.3626379189
 H         0.5350232624        4.5696330064      -25.7300445602
 H         1.1606036185        3.3110964206      -24.5647037061
 H        -1.1160536831        4.6101680646      -21.7075074243
 H         0.3287627318        5.4135776126      -22.2564432689
 H         0.3903001391        3.7041040852      -22.0735010430
 Na       -2.0104843519       -3.8915849084       -3.0273261651
 Na       -4.1463121659        4.5595264854      -23.2101069661
