232

 C        -0.6734204983        7.0849863637      -24.8147456184
 C        -1.5099207004        5.8072732750      -24.4040325371
 O        -2.6575625964        5.9458502969      -24.0058339382
 C        -0.7493204833        4.4406822622      -24.1022661385
 C        -1.6687200562        3.2443474631      -24.4085792352
 O        -2.1713791168        2.5735388039      -23.5151477856
 C        -1.9320091140        2.9158951712      -25.8429418100
 C        -3.0374015471        1.8599835157      -26.0331536701
 C        -4.4248763296        2.5566767555      -25.9951940408
 O        -4.5739549960        3.5701983999      -25.3691443199
 C        -5.5601709033        1.8516916860      -26.6757755780
 C        -6.5435274271        1.4214667823      -25.3934291605
 O        -6.7094436468        0.2803019109      -25.0683445597
 C        -7.2570948000        2.5170010881      -24.6516375802
 C        -7.4409040326        2.2851329799      -23.1362870590
 C        -6.7501925893        3.3085612800      -22.3140315227
 O        -6.3840446439        4.3316884035      -22.8613574660
 C        -6.3715457528        3.0798022575      -20.7355905451
 C        -5.0294057458        2.4189687688      -20.4914139684
 O        -4.0964283448        2.6397719777      -21.2325789469
 C        -4.9074167057        1.2343364056      -19.5572161320
 C        -3.4722833467        1.1894647109      -18.9996839724
 C        -3.3514546117        1.7360167441      -17.5659350189
 O        -4.2204011845        2.3163714245      -16.9903656390
 C        -1.9344223915        1.5083115496      -16.8090308170
 C        -1.8920636964        0.1505650321      -16.0848380618
 O        -2.0066437013       -0.8989994633      -16.6842493783
 C        -1.5613794282        0.2261668566      -14.5431970444
 C        -1.5830959504       -1.0601520578      -13.7201515493
 C        -2.9185050484       -1.1478801669      -12.9797920004
 O        -3.4996943821       -0.1587633650      -12.6619470657
 C        -3.3023884290       -2.5504593138      -12.2663926695
 C        -2.2252773679       -2.7697309972      -11.2441961798
 O        -1.1543913343       -3.2785050099      -11.6318943600
 C        -2.3915960596       -2.0890847976       -9.8995362216
 C        -1.9940673369       -2.8187894121       -8.6287359406
 C        -2.9098716857       -4.0499824467       -8.6696125517
 O        -3.2930838309       -4.4444712870       -9.7664443492
 C        -3.4402705399       -4.6385034653       -7.2778853084
 C        -2.2501504183       -4.7708400249       -6.2636856898
 O        -2.1516196549       -4.0125600589       -5.2989826628
 C        -1.1846273507       -5.7819682987       -6.6300431064
 C        -0.0388854907       -5.5521281799       -5.6789218402
 C        -0.0472406865       -6.4663620227       -4.3856150316
 O        -0.8685667808       -7.3719662266       -4.2691438864
 C         0.9845928977       -6.1545560810       -3.3225120273
 C         1.2204104174       -4.6472065544       -2.7866484238
 O         0.2829707185       -3.9624461132       -2.4031800760
 C         2.6328848514       -3.8826469129       -2.9471193883
 C         2.4863673087       -2.3673181341       -3.1590375084
 C         2.0758757356       -1.9472584094       -4.5554971839
 O         1.6080309527       -2.8661242947       -5.2843675535
 C         2.0783089833       -0.3801647889       -4.9400412538
 C         1.0104697545        0.1834809700       -3.9041246497
 O         1.0619321995        0.1352352659       -2.6792681830
 C        -0.3889790208        0.4822874275       -4.5302516532
 C        -1.3872249286        0.5761994461       -3.3620984246
 C        -1.7130315742       -0.7558339244       -2.6108264190
 O        -1.8981113071       -1.6642365855       -3.3510017349
 C        -1.9437201059       -0.8331582277       -1.0694044130
 C        -3.2446388818       -1.7144793589       -0.8141440485
 O        -3.3809276392       -2.8748314907       -1.1469885642
 C        -4.4104039022       -1.0563463956       -0.0269625156
 C        -5.2034770740       -2.1128777484        0.6481206932
 C        -4.3294834258       -2.9015710913        1.6972735166
 O        -3.1486000511       -2.6558286822        1.8395604614
 C        -4.9722545863       -4.1319481026        2.4221241903
 C        -4.7924935251       -5.2869906146        1.3263984481
 O        -5.7182797542       -5.7197578283        0.7183756089
 C        -3.2294519466       -5.6538815181        0.9024840855
 C        -3.1665118569       -6.9154285955       -0.0420615620
 C        -3.4091560793       -6.4177427252       -1.4613580294
 O        -2.4793631098       -5.7781309819       -1.8586584732
 C        -4.7744979658       -6.7145587201       -2.3147084219
 C        -5.2380185631       -5.2870671949       -2.7601217411
 O        -4.5114914697       -4.5512439693       -3.5116535962
 C        -6.6941299070       -4.9210311820       -2.4508154108
 C        -7.0887022268       -3.6794662199       -3.2107002372
 C        -8.0159867230       -2.7379899055       -2.4079357264
 O        -7.6468002781       -2.2026897906       -1.3654720178
 C        -9.5335578758       -2.5496108207       -2.8581048688
 C        -9.7337787150       -1.9392388372       -4.2776034658
 O        -8.8310903170       -1.8872291453       -5.0941510514
 C       -11.1221422402       -1.4157249630       -4.6265884469
 C       -10.3341900493       -3.8523417681       -2.6803587983
 C       -10.0922380705       -1.6328511877       -1.6503455780
 C        -4.0964593983       -7.5386646013       -3.4209080172
 C        -5.8081781101       -7.6485627321       -1.5118944141
 C        -4.1575466308       -4.4475483566        3.7280192011
 C        -6.4630312603       -4.0317667532        2.8422346332
 C        -0.6925031305       -1.4976393831       -0.5301959456
 C        -2.1130361582        0.5693352939       -0.4808881921
 C         3.4914738966        0.2167467823       -4.6728131904
 C         1.6099885036       -0.2691063038       -6.4299976948
 C         0.5258456805       -6.7611877532       -1.9425345179
 C         2.3533520012       -6.8784576904       -3.6761332888
 C        -4.5746101396       -3.6726444872       -6.6990749821
 C        -4.0760268420       -6.0916949185       -7.5678493581
 C        -4.8188363932       -2.3226773268      -11.8125984368
 C        -3.3777629895       -3.7852621341      -13.2788509442
 C        -0.7579698739        1.5356660462      -17.7650814036
 C        -1.8040671355        2.7993646279      -15.9050428192
 C        -6.3846477570        4.4874840455      -20.0157440529
 C        -7.6143384845        2.3301007356      -20.0729977016
 C        -6.3114701419        2.8072978914      -27.5290245170
 C        -5.2472720734        0.5435533796      -27.3657313026
 C         0.5635991147        4.3630140023      -24.8994982506
 C        -0.5144466617        4.5240451662      -22.5927216652
 H         0.2015950741        6.9251957631      -24.1759668039
 H        -1.1614229390        8.0307622207      -24.6217047336
 H        -0.4356401233        7.0517050762      -25.9172331857
 H        -1.0495013031        2.4354414102      -26.1866625751
 H        -2.1070289196        3.8086269404      -26.4231366910
 H        -3.1147551629        1.1006425713      -25.2207705108
 H        -2.8188391369        1.2756797348      -26.9559172640
 H        -8.2703759853        2.6389375461      -24.9800763131
 H        -6.7814638671        3.4727006510      -24.7764204978
 H        -7.0233910278        1.3285943185      -22.8039807720
 H        -8.4993003038        2.1365036491      -22.9079098765
 H        -5.1902327818        0.4452547341      -20.1708307247
 H        -5.6503659650        1.3570369927      -18.7128181501
 H        -2.7604129737        1.7210109604      -19.6632406142
 H        -3.2308023836        0.0962393489      -19.1409253781
 H        -2.0444372168        1.0727231921      -14.0120997766
 H        -0.5819914714        0.6945600393      -14.5608477329
 H        -0.8870733011       -0.9870731258      -12.8149633128
 H        -1.1927755257       -1.9642046758      -14.2567935070
 H        -3.4916610485       -1.8188213721       -9.9681096660
 H        -1.6987342765       -1.3005837599      -10.0966289453
 H        -2.1378648622       -2.2353290193       -7.8312362231
 H        -0.9054055869       -3.2174739038       -8.7235808712
 H        -0.8646233855       -5.7693814809       -7.6537866825
 H        -1.6755329640       -6.7044395333       -6.4471540454
 H        -0.0005831044       -4.4719480935       -5.3791904721
 H         0.9235516453       -5.7632076924       -6.2520913196
 H         3.0699160961       -4.3439779124       -3.8791255726
 H         3.3363731362       -4.2924249579       -2.2172284741
 H         3.3091753920       -1.8154813873       -2.7872650031
 H         1.7290267655       -2.0197950673       -2.4547030905
 H        -0.6290575223       -0.2982055524       -5.2400207297
 H        -0.4440118841        1.4757863602       -5.1010503450
 H        -2.3322854694        0.9128261940       -3.6897819450
 H        -0.9023217227        1.2923638754       -2.7318275208
 H        -5.0435523168       -0.6076505811       -0.8137092450
 H        -4.0530258739       -0.2793465636        0.6973899430
 H        -5.6430221244       -2.7211720798       -0.1565226954
 H        -5.9831988715       -1.6142995582        1.3153590842
 H        -2.6148183491       -5.7710801113        1.7886984313
 H        -2.9832463300       -4.8365954359        0.3246778270
 H        -3.9108159847       -7.5650017457        0.4511709713
 H        -2.0909162837       -7.2102536603       -0.0209264332
 H        -6.7883862227       -4.8045456499       -1.3391017758
 H        -7.2666214288       -5.8304881052       -2.7130177775
 H        -7.6446192005       -3.8641279630       -4.1388009031
 H        -6.1530186985       -3.0470251107       -3.3839134383
 H       -11.0485760930       -0.8186837748       -5.4961151731
 H       -11.6088807724       -0.9319420334       -3.7738469928
 H       -11.7800689162       -2.1808767297       -5.0601271260
 H       -10.0884350376       -4.7260561708       -3.2781148324
 H       -11.3811029294       -3.5588165246       -2.9671688163
 H       -10.2980367660       -4.0934334098       -1.6461076486
 H       -10.0002023942       -2.2435545514       -0.7816114113
 H       -11.1271512978       -1.3871086352       -1.9031668532
 H        -9.5306261762       -0.7329384264       -1.5132225711
 H        -4.8852689349       -7.8564271834       -4.1552132121
 H        -3.4515573457       -8.3375306896       -3.0585484418
 H        -3.3253834119       -6.9303890801       -3.9383840974
 H        -6.6790240495       -7.7607286390       -2.0917692975
 H        -6.0613219046       -7.3297458736       -0.4590376165
 H        -5.2960878933       -8.5851511353       -1.3234881914
 H        -3.8545564122       -5.4840659139        3.9204436267
 H        -4.8009901098       -4.2942459153        4.5979568431
 H        -3.3402431311       -3.7254530981        3.9683216444
 H        -6.6574087208       -3.2351172981        3.5513078773
 H        -6.7902004142       -4.8761772883        3.4245540561
 H        -7.1482401322       -4.0522507303        2.0269843818
 H        -0.0638988452       -1.8229562963       -1.3604621709
 H        -0.9669117988       -2.3342742440        0.1324364050
 H        -0.1014289792       -0.8285133596        0.1745861065
 H        -1.1767103676        1.2346930064       -0.3834426884
 H        -2.5719765030        0.5539086591        0.5076929880
 H        -2.9601330967        1.0299930432       -1.1122494815
 H         3.6121575886        1.0690687615       -5.2603440440
 H         4.1421077462       -0.6170495422       -4.9049451435
 H         3.5067490869        0.4365707523       -3.5970575622
 H         0.6341541603       -0.6700680004       -6.6705617348
 H         2.4545095187       -0.7315837119       -6.8800684232
 H         1.5858273242        0.7756161776       -6.7218347151
 H         1.2083023825       -6.6642476682       -1.0789926862
 H         0.3305535369       -7.8203598174       -1.9885968645
 H        -0.2649025871       -6.0940334323       -1.6054939686
 H         2.1364122528       -7.8366434016       -4.1649409919
 H         2.9573843444       -6.7946220092       -2.7766717231
 H         2.7479589142       -6.2862490127       -4.4685464571
 H        -4.3193526427       -2.6614752973       -6.9809584919
 H        -4.4409941100       -3.6591478591       -5.5866533313
 H        -5.6298778069       -4.0503673659       -6.9197628898
 H        -4.5022532026       -6.6035455156       -6.7087729965
 H        -3.3265345644       -6.7144347539       -8.0917904607
 H        -4.8546711116       -5.9827851505       -8.2963522788
 H        -5.1848285018       -3.0432452653      -11.1028831518
 H        -5.4394812983       -2.4622504064      -12.6901162964
 H        -5.0954565082       -1.3136928677      -11.3830154542
 H        -4.2743849963       -3.5771045945      -13.8657893625
 H        -3.5845872312       -4.6718082577      -12.6463582508
 H        -2.5339543623       -4.0584288458      -13.9060928789
 H        -0.7632842006        2.4520822399      -18.4632215203
 H        -0.5683696209        0.7009204564      -18.4327625672
 H         0.1649519674        1.6187786768      -17.2289620945
 H        -2.6129256548        3.0128406351      -15.2772016914
 H        -1.5163582569        3.7140619480      -16.4755405338
 H        -0.9122218432        2.6951048665      -15.2599931363
 H        -7.4056222599        4.8493571426      -20.0773743600
 H        -5.6891046443        5.1857344857      -20.5777415245
 H        -6.1281851270        4.1999518178      -18.9658760094
 H        -8.4988680404        2.7884706121      -20.4012074692
 H        -7.6426074809        2.3363347479      -18.9843931555
 H        -7.5474800579        1.3392066945      -20.5225678639
 H        -6.3404062577        3.7577685121      -26.9677712131
 H        -7.2301429461        2.3837322177      -27.9940508191
 H        -5.6702701613        3.2312200919      -28.3528422174
 H        -4.8250446321        0.7239144280      -28.3080289184
 H        -6.1959858319        0.0855649020      -27.4632711203
 H        -4.5359064060        0.1157245972      -26.6374455944
 H         1.0536708064        5.3496001943      -24.9159104477
 H         0.4395721419        3.9382004317      -25.8990340695
 H         1.2562836347        3.6865031163      -24.4241392457
 H        -1.5090972178        4.4160549331      -22.1938042843
 H         0.0291319913        5.4132566945      -22.1623196970
 H         0.0348032717        3.5597499643      -22.3099986921
 Na       -2.1833605059       -3.9113840546       -2.9675357375
 Na       -3.8978223513        4.1996898050      -22.9620993129
