232

 C        -0.8938759543        7.0823576890      -24.5679998342
 C        -1.5708775057        5.8406859645      -24.2292545550
 O        -2.7396073714        5.8140359271      -23.9124856448
 C        -0.7203520501        4.4592478702      -24.2486206720
 C        -1.7011395829        3.1785090635      -24.4623607385
 O        -2.1532134638        2.5374899335      -23.4920809867
 C        -2.0185198204        2.7726164084      -25.9702733914
 C        -3.1659659932        1.6865970483      -26.0525184358
 C        -4.6241719370        2.3496976184      -25.9654707324
 O        -4.7766873172        3.3450318702      -25.2521106064
 C        -5.9215357259        1.7439307040      -26.5732523315
 C        -6.7115770891        1.3829968278      -25.1877999671
 O        -6.7468200541        0.2551372777      -24.7941396927
 C        -7.6243283120        2.4372840296      -24.5583297433
 C        -7.6539044436        2.4329825482      -23.0430020298
 C        -6.6119387206        3.2575806253      -22.3957177039
 O        -6.0748386979        4.2159331572      -22.8647746299
 C        -6.3541901913        3.1124918818      -20.8348328042
 C        -5.0991119098        2.2736997805      -20.6099530214
 O        -4.1023482827        2.5623654678      -21.2173882041
 C        -5.0417604736        1.2775778802      -19.3652998939
 C        -3.5808839803        1.0482995405      -18.9467634464
 C        -3.3321916588        1.6749727586      -17.5947905413
 O        -4.1707853049        2.2630512902      -16.9493500274
 C        -1.9053314710        1.6918015960      -16.8418644584
 C        -1.9911841781        0.4092256923      -15.9053792961
 O        -2.3957506307       -0.6376288874      -16.3467108548
 C        -1.5016547136        0.5091804655      -14.4335774896
 C        -1.6847729261       -0.8761632565      -13.8184217225
 C        -2.9955131876       -0.8798540137      -12.9104448426
 O        -3.7328310900        0.0476916920      -12.7646507949
 C        -3.1941366722       -2.2708485396      -12.2432816302
 C        -2.0619344803       -2.4494865486      -11.1094627988
 O        -1.0379209210       -3.1671261507      -11.2570837049
 C        -2.3556828446       -1.7057902675       -9.7640763652
 C        -2.1178856626       -2.7469757294       -8.7244322072
 C        -2.9511736211       -4.0084167538       -8.9510727609
 O        -3.2255906903       -4.6066496362       -9.9898007032
 C        -3.3578923718       -4.4540492177       -7.5429315992
 C        -2.2117261268       -4.4917925360       -6.3934392700
 O        -2.3755836569       -3.9067462816       -5.3254095920
 C        -1.0237925530       -5.3799515046       -6.7130900886
 C         0.1003050315       -5.2637442205       -5.6818444724
 C         0.1818421142       -6.3852266742       -4.5811727256
 O        -0.5582312828       -7.3297623696       -4.6474057760
 C         1.2518216783       -6.1559217894       -3.2550027064
 C         1.2642918161       -4.5705342343       -3.0570353676
 O         0.1817923542       -3.9902576248       -2.9998500073
 C         2.6505640870       -4.0250883939       -2.9082768066
 C         2.7359268942       -2.5023938671       -3.1475288842
 C         2.1603481057       -2.0936403793       -4.4839144798
 O         1.7981959078       -2.9668676152       -5.3279593514
 C         1.9649786676       -0.5881546731       -4.7899364276
 C         0.8218982194        0.1269299721       -3.8084616181
 O         0.9463641583        0.2752175372       -2.5936419517
 C        -0.4703459233        0.6227977296       -4.3981195454
 C        -1.5843874565        0.8311089653       -3.2372980401
 C        -1.6991018368       -0.5565297125       -2.5139447325
 O        -1.6219410795       -1.6017156173       -3.1127800909
 C        -1.9069600313       -0.7574965884       -0.9627584062
 C        -3.1847489315       -1.7519149838       -0.7602777362
 O        -3.1079954911       -2.9077691934       -1.0944801426
 C        -4.4816873474       -1.2227955495       -0.1081247022
 C        -5.2635842617       -2.2960999325        0.6618207748
 C        -4.3555159675       -2.9642742746        1.7395391543
 O        -3.2163557699       -2.5570809800        1.7908319020
 C        -4.9343327320       -4.2937431372        2.4932253748
 C        -4.6654724729       -5.3235315223        1.3739179212
 O        -5.5629618694       -5.5495847142        0.6634394841
 C        -3.3450563869       -6.0804653061        1.2089923637
 C        -3.3689791427       -7.1796580089        0.0468761539
 C        -3.4562502347       -6.6313004403       -1.3913285195
 O        -2.4157037467       -6.0923263683       -1.9271544999
 C        -4.6776750581       -6.8521498025       -2.2827013441
 C        -5.1731530661       -5.4170210266       -2.7630456004
 O        -4.4416700413       -4.7438917897       -3.4426469620
 C        -6.5194749865       -4.8267704936       -2.2499060376
 C        -7.2649856559       -3.7794952502       -3.1063499332
 C        -8.1247292547       -2.8189413520       -2.2919756991
 O        -7.8180486023       -2.1460994738       -1.3261104424
 C        -9.6081745890       -2.5987521356       -2.8762354864
 C        -9.6023662681       -1.8610937945       -4.2110707090
 O        -8.5816192832       -1.5800141889       -4.8250394981
 C       -11.0038307098       -1.5499019926       -4.7652969285
 C       -10.2647356813       -3.9851510092       -3.0118342197
 C       -10.4317641171       -1.7968405053       -1.8241552413
 C        -4.3011494661       -7.4146937988       -3.6897865699
 C        -5.7172430784       -7.7938853707       -1.6641286615
 C        -4.0410525843       -4.5320235063        3.7528869784
 C        -6.4718699352       -4.1573705124        2.8319144263
 C        -0.7545644234       -1.5581630082       -0.5092673802
 C        -2.0178295778        0.6076649675       -0.2663561014
 C         3.2235649128        0.2552670932       -4.3321829237
 C         1.7355650193       -0.4440990626       -6.3380359591
 C         0.7690467110       -6.8862081453       -2.0282767764
 C         2.5712006263       -6.7809957972       -3.7738744797
 C        -4.5860455575       -3.4865297438       -7.0820020425
 C        -3.9581493301       -5.9042576238       -7.6526657014
 C        -4.7092677904       -2.4717212030      -11.6095540186
 C        -3.0560565058       -3.4504300228      -13.3365033314
 C        -0.7460674926        1.4375033098      -17.8442226305
 C        -1.6372491888        2.9590030209      -15.9256599581
 C        -5.9749416122        4.4903169162      -20.1296345779
 C        -7.6187140026        2.4196776905      -20.0919199353
 C        -6.6996321641        2.8210366261      -27.3218262079
 C        -5.6647766516        0.4355764522      -27.3000464428
 C         0.5436275800        4.5426805732      -25.1042111518
 C        -0.2992308684        4.3313985149      -22.7441538413
 H        -0.4379731942        7.4943893851      -23.6452670488
 H        -1.6704622146        7.7960660943      -24.7899373128
 H        -0.1968289498        6.9946388173      -25.4443759021
 H        -1.0499051918        2.2346447133      -26.2510215050
 H        -2.2277708677        3.6344611062      -26.5839316397
 H        -3.0025757037        0.9904214325      -25.2393250100
 H        -3.1568725221        1.1476225839      -26.9509279792
 H        -8.5695067056        2.1535907615      -25.0288164559
 H        -7.3710902037        3.5462294248      -24.8451465383
 H        -7.6245925775        1.4116295008      -22.7217393601
 H        -8.5473921972        2.8376885180      -22.5828136960
 H        -5.5935187206        0.3973635133      -19.7044650458
 H        -5.6430471279        1.8093117914      -18.5790003121
 H        -2.9613053341        1.4299229462      -19.7106537644
 H        -3.3164316352       -0.0018932734      -18.9781622593
 H        -1.9075932864        1.3204636108      -13.9124020421
 H        -0.4448489181        0.8805961874      -14.4578893590
 H        -0.8194502685       -1.2385675056      -13.2934906641
 H        -1.8770026873       -1.5093697631      -14.6614424681
 H        -3.3506439398       -1.3094610406       -9.7378517074
 H        -1.5907214399       -0.9414965074       -9.6231589910
 H        -2.0884114324       -2.3320430724       -7.7769033151
 H        -1.1022491756       -3.0523136737       -8.9803669305
 H        -0.6575031259       -5.1162174122       -7.7441184945
 H        -1.3909763460       -6.4375314141       -6.8187082379
 H         0.0507779362       -4.3362493307       -5.1777252595
 H         1.0626573061       -5.3263434714       -6.2577215774
 H         3.2434837699       -4.5310273877       -3.6238679819
 H         3.0850363954       -4.4545441650       -2.0157934152
 H         3.7920356722       -2.2978869137       -3.0435174014
 H         2.3865518000       -1.9235134997       -2.3399998620
 H        -0.9472465425       -0.1857068138       -5.0451841785
 H        -0.3191761934        1.4732019221       -5.1242271441
 H        -2.5661292933        0.9822180148       -3.7283058683
 H        -1.4211869510        1.6331325108       -2.4855353472
 H        -5.2001277381       -0.9422947544       -0.8916581188
 H        -4.3328116312       -0.3813582365        0.4784423299
 H        -5.6387361616       -3.0983483870        0.1105461551
 H        -6.0697271438       -1.7065804511        1.0998434209
 H        -3.2802276071       -6.6288942621        2.2326791162
 H        -2.4621208956       -5.4839474524        0.8837924705
 H        -4.2584511722       -7.8199095087        0.3022368823
 H        -2.4113459385       -7.5806041899        0.1726795202
 H        -6.1181420870       -4.4323041944       -1.2823289112
 H        -7.1650942903       -5.6581807322       -1.9527374663
 H        -7.9551171299       -4.1992501488       -3.8529217627
 H        -6.5663965382       -3.1777224981       -3.5580513236
 H       -11.1599127189       -2.1525000641       -5.5840444972
 H       -11.1341466320       -0.4370256343       -4.8901557557
 H       -11.8057644012       -1.8527223955       -4.1042362381
 H       -10.1949206803       -4.5151556426       -4.0005325271
 H       -11.3039514350       -4.0056150152       -2.7777220520
 H        -9.7410573540       -4.5331042085       -2.2458639556
 H       -10.0349922552       -2.0392848712       -0.8342599840
 H       -11.4998524586       -1.8991916094       -2.0687954671
 H       -10.1947110935       -0.6961421742       -1.9388505646
 H        -5.1461107352       -7.4884770161       -4.4167187270
 H        -4.0140389198       -8.4548553393       -3.5159001513
 H        -3.4664163381       -6.9663436432       -4.1465817856
 H        -6.4263393426       -8.0802363378       -2.4679254759
 H        -6.2636490124       -7.2804892349       -0.7657595901
 H        -5.3265475151       -8.7551138803       -1.3170724876
 H        -4.1864594011       -5.5306398288        4.2482841953
 H        -4.1773590035       -3.7746233660        4.5013650532
 H        -2.9742908510       -4.5531492864        3.5230526687
 H        -6.5940072261       -3.4647019277        3.6550386639
 H        -6.9481032921       -4.9666815632        3.3757908022
 H        -7.0292633222       -3.9206060166        1.8992233191
 H        -0.9862058544       -2.5691507873       -0.7679131589
 H        -0.5346406090       -1.5001284457        0.5188575199
 H         0.1381021291       -1.2359688506       -1.0960424745
 H        -1.1625215068        1.1743266107       -0.5724763615
 H        -2.0666901806        0.6342243071        0.7544427289
 H        -2.8922380676        1.1144999657       -0.5372745728
 H         2.8142273420        1.2484781927       -4.4178706022
 H         4.0867155635        0.0351487761       -4.9544500343
 H         3.3478673822        0.1223896051       -3.2076142557
 H         0.7324272512       -0.9021417808       -6.5542447420
 H         2.4796453400       -1.0560098777       -6.8954755622
 H         1.7393138225        0.6131982016       -6.6607410210
 H         1.5283580366       -6.8867952998       -1.2279686267
 H         0.6986134244       -7.9743193805       -2.3038996018
 H        -0.2044922634       -6.5755321947       -1.5903401060
 H         2.4786533450       -7.9052398860       -3.7149490735
 H         3.3648742285       -6.4519887914       -3.0990479055
 H         2.7558603617       -6.3520762694       -4.7746708377
 H        -4.2492945315       -2.6748505098       -6.5581533333
 H        -5.3833974520       -3.9742386193       -6.5787959190
 H        -4.9732193430       -3.1056742182       -8.0983422671
 H        -4.0244230361       -6.3217830890       -6.6670158043
 H        -3.2444597591       -6.5543648993       -8.2336982210
 H        -4.9335398211       -5.9248720996       -8.1547286084
 H        -5.0072905976       -3.5594646365      -11.5375074140
 H        -5.4253346942       -2.2528092669      -12.4252043261
 H        -4.9844895505       -2.0237870603      -10.6923002223
 H        -3.8222947346       -4.0753369193      -12.9613903465
 H        -2.1418412829       -4.0715618273      -13.3167900603
 H        -3.2376887619       -3.1203133983      -14.3777575674
 H        -0.6594769358        2.1470386219      -18.6487871276
 H        -0.9387088975        0.5373138962      -18.3176791992
 H         0.2767006832        1.2409764915      -17.5329650545
 H        -2.4257345162        3.0949578131      -15.2514652831
 H        -1.7640512778        3.9027413016      -16.5224364067
 H        -0.7268569493        2.9931102457      -15.3412586059
 H        -6.8800619632        5.0111220311      -20.1973422827
 H        -5.1500125799        4.9392832959      -20.6513093523
 H        -5.8764251056        4.1371876335      -19.1001177647
 H        -8.4776603113        2.9965873843      -20.2939707115
 H        -7.5087710263        2.4273538387      -18.9471461408
 H        -7.7679777449        1.3541198755      -20.4648895260
 H        -6.7138280749        3.7293123745      -26.7772551921
 H        -7.6858572864        2.4993343981      -27.4643830086
 H        -6.2089750937        3.1419458502      -28.2568511237
 H        -4.7471985383        0.5283087531      -27.8933571590
 H        -6.5374056345        0.3247048014      -27.9667538991
 H        -5.5005712049       -0.3353129488      -26.4520704300
 H         1.2422950964        5.0177568866      -24.3924196117
 H         0.5046062470        5.1824377381      -26.0062558562
 H         0.8411297301        3.6414248957      -25.5051278116
 H        -1.1706593737        4.6191433247      -22.1668466490
 H         0.4455784087        5.0539640013      -22.5176612748
 H         0.0589602598        3.3799071357      -22.4334085496
 Na       -2.1252169637       -3.9435509354       -3.1123547956
 Na       -3.8420786431        4.0176218414      -23.3572367499
