232

 C        -0.9936597975        7.0909004695      -24.5449083713
 C        -1.5636017627        5.7062724119      -24.2350659310
 O        -2.7415616291        5.6677598256      -23.8694888975
 C        -0.6605519612        4.4191421930      -24.2221327062
 C        -1.5923207074        3.1170235162      -24.5507075301
 O        -2.0848690203        2.5786222093      -23.5782350307
 C        -2.1381834044        2.8017135639      -25.9403621366
 C        -3.2104492107        1.7472740320      -26.0936678294
 C        -4.6176981419        2.3330090128      -25.8884563690
 O        -4.7791386784        3.3489286546      -25.3143389212
 C        -5.9927154537        1.6363367084      -26.4687286334
 C        -6.8587588974        1.3834207119      -25.1754603014
 O        -6.6782078123        0.3139758306      -24.5868422110
 C        -7.6617022066        2.5383683968      -24.5447599067
 C        -7.7624291269        2.3678033004      -23.0506723001
 C        -6.7099585058        3.2266808337      -22.2885575952
 O        -6.1068884871        4.0632344418      -22.9705327451
 C        -6.3411316571        3.1134717738      -20.7392099178
 C        -5.0032315297        2.2459885016      -20.5527074632
 O        -4.0481977053        2.4855692985      -21.2881011155
 C        -5.0019540542        1.2760502909      -19.4037135572
 C        -3.5989559955        0.9566011838      -18.8200794031
 C        -3.3323184757        1.7531071547      -17.4339391771
 O        -4.2495169110        2.3286740099      -16.9431968721
 C        -1.9259186141        1.6931687539      -16.8409677267
 C        -1.9668472014        0.5010057619      -15.8955268509
 O        -2.5235884125       -0.4892676951      -16.3391623408
 C        -1.4999334861        0.5809674477      -14.4791842097
 C        -1.7525333610       -0.7985730606      -13.7596176431
 C        -3.0001815111       -0.8971256471      -12.8993540352
 O        -3.7640270236        0.0301827180      -12.7984573694
 C        -3.1764713233       -2.3406282653      -12.2619462814
 C        -2.1089114260       -2.4328620612      -11.1927911046
 O        -1.0216146875       -2.9688514586      -11.3907628489
 C        -2.3082039179       -1.7728384310       -9.8745684312
 C        -1.9683982428       -2.6727473527       -8.6453339651
 C        -2.7883762372       -3.9702003080       -8.7177639654
 O        -3.1519167053       -4.4553193302       -9.8084992601
 C        -3.4729322313       -4.5511524519       -7.4518624292
 C        -2.3265037283       -4.5714659559       -6.4277723631
 O        -2.4065220476       -3.8091255503       -5.4796203900
 C        -1.0479696832       -5.3898387528       -6.7052211228
 C         0.0193660138       -5.1369831259       -5.6758740151
 C         0.1343085214       -6.3014844855       -4.6696569267
 O        -0.5302364561       -7.3240206063       -4.7532084651
 C         1.2255615701       -6.1979267478       -3.5379479475
 C         1.3019374641       -4.7016229534       -3.1872612281
 O         0.3077460434       -3.9959644122       -3.0456301211
 C         2.6497875648       -4.0488189207       -2.8891023702
 C         2.6953781107       -2.4869653800       -3.1057466847
 C         2.1032699919       -2.0831813419       -4.3836965711
 O         1.9625351894       -2.8506552142       -5.3385285736
 C         1.7955463469       -0.5367177597       -4.6340077668
 C         0.7636680662        0.0447609261       -3.7836944331
 O         1.0289576368        0.2138361808       -2.6116116137
 C        -0.5554940373        0.5197533085       -4.4268854035
 C        -1.4957972777        0.7496089457       -3.2452091648
 C        -1.7374413487       -0.6422960830       -2.5179471790
 O        -1.6282585632       -1.6145339756       -3.2192058151
 C        -1.8659379252       -0.7702544441       -0.9595573190
 C        -3.2424062250       -1.7121357937       -0.7549169759
 O        -3.1549158403       -2.8469720529       -1.1809502107
 C        -4.5596316551       -1.1759724165       -0.1740356953
 C        -5.2511317371       -2.2354120525        0.6632139772
 C        -4.2914723411       -2.9567264574        1.7430897088
 O        -3.1579301600       -2.5732785294        1.9955017897
 C        -4.7966669002       -4.2272566340        2.3830842146
 C        -4.7530476993       -5.4414937443        1.3443016571
 O        -5.5716164078       -5.6068333328        0.4319316730
 C        -3.3603975729       -6.2279709672        1.2154999015
 C        -3.4396027360       -7.3221835917        0.1107481539
 C        -3.4565400101       -6.7435661819       -1.3873291160
 O        -2.5444920240       -6.0975577120       -1.7368603124
 C        -4.7025989555       -6.8876208404       -2.3536223448
 C        -5.1546681246       -5.3716134423       -2.6693410170
 O        -4.4547394828       -4.6746675857       -3.4084635339
 C        -6.5003918666       -4.8045012045       -2.1244739406
 C        -7.1108761897       -3.7593610511       -3.0676548783
 C        -8.1911525119       -2.8603292703       -2.3442118795
 O        -7.8200146746       -2.2078634862       -1.3830694471
 C        -9.6526669202       -2.7422100144       -2.8090229481
 C        -9.5629545413       -1.8690675510       -4.2726493784
 O        -8.5168250818       -1.4925710970       -4.7168403265
 C       -10.8721531567       -1.5050886620       -4.9513034199
 C       -10.4410615023       -4.1245252942       -3.0036328591
 C       -10.4606513276       -1.8940473913       -1.7425131817
 C        -4.2355571468       -7.4378507066       -3.7853782528
 C        -5.7624285225       -7.7632458739       -1.7327778106
 C        -4.0815666806       -4.5107876465        3.7530912985
 C        -6.2663591277       -4.1473371276        2.9249733265
 C        -0.5439888979       -1.5305959733       -0.4311190211
 C        -2.0817967741        0.5513504885       -0.1502181730
 C         3.1891581065        0.2630587865       -4.2902758846
 C         1.6170781474       -0.3538237389       -6.0948978085
 C         0.8113296618       -6.7918059004       -2.1499543195
 C         2.6618095362       -6.7412198239       -3.9119878000
 C        -4.5677828774       -3.5306409737       -7.0077772328
 C        -3.9344579014       -5.9728919077       -7.7677996880
 C        -4.5057905453       -2.4030623467      -11.6368197638
 C        -2.9953473603       -3.3671653162      -13.3697367148
 C        -0.7502657980        1.4013135206      -17.7687562152
 C        -1.5839343598        3.0480170904      -16.1997289735
 C        -5.9886019792        4.4841614516      -20.1453434781
 C        -7.6284235476        2.5251697629      -20.0843573464
 C        -6.6521345434        2.7835844001      -27.2674640825
 C        -5.8656040899        0.3337946763      -27.3446721141
 C         0.4438324991        4.5075648682      -25.2486881566
 C        -0.1917718833        4.2639903007      -22.7217794447
 H        -0.5916235947        7.4742147793      -23.5994971770
 H        -1.8623475952        7.7809537411      -24.6215566709
 H        -0.3018518587        7.2058115610      -25.4207442040
 H        -1.3209115791        2.5064899646      -26.5193779599
 H        -2.5387196770        3.7542325784      -26.2598449166
 H        -2.9920026061        0.9166643559      -25.4741341726
 H        -3.3012784067        1.3892402534      -27.1523448629
 H        -8.6326350689        2.6464543288      -25.1072700435
 H        -7.1376331679        3.3646385983      -24.6642466917
 H        -7.6915800268        1.3162534097      -22.8458386041
 H        -8.6660189823        2.7359305965      -22.6205747294
 H        -5.6506761883        0.5054950739      -19.7399359273
 H        -5.6265492434        1.9064996799      -18.6505224850
 H        -2.8524176289        1.1018405044      -19.5747278419
 H        -3.4458161794       -0.1026700341      -18.5809273610
 H        -1.8866235894        1.4988744113      -14.0194056831
 H        -0.4609336094        0.8436709359      -14.4570022233
 H        -0.8673744386       -1.0257092429      -13.1325338965
 H        -1.8499540819       -1.4938112520      -14.6196965920
 H        -3.4184777318       -1.5047411463       -9.6076202304
 H        -1.7767188171       -0.8682849280       -9.8646936311
 H        -2.0993492207       -2.1304879453       -7.7963902339
 H        -0.8737842044       -2.8948385041       -8.6572832221
 H        -0.7324619708       -5.1971336592       -7.7349484627
 H        -1.2666387404       -6.4413384715       -6.6853112988
 H        -0.1652144468       -4.1736156570       -5.0847049744
 H         1.0398553647       -5.0767271478       -6.1722867101
 H         3.4971043843       -4.5749562679       -3.3498751252
 H         2.8439747421       -4.2511199699       -1.8479558854
 H         3.6881224883       -2.2591390788       -3.0077588739
 H         2.3019407749       -1.9645093466       -2.2870666397
 H        -0.9771627188        0.0034033186       -5.3358379813
 H        -0.3230099099        1.6261576138       -4.8267420653
 H        -2.3859215148        1.1960388427       -3.5881169607
 H        -1.0292883041        1.4421984768       -2.5812304049
 H        -5.2823976758       -0.9945167582       -0.9297125083
 H        -4.4202869522       -0.1783235268        0.3408200018
 H        -5.6967038805       -3.0134338757        0.0785257584
 H        -6.0662870707       -1.6751108507        1.1795452903
 H        -3.0383710757       -6.7049948046        2.1860830784
 H        -2.6816061583       -5.5079100834        0.7743074338
 H        -4.3944644045       -7.7313193527        0.4016828075
 H        -2.5389087277       -7.9956190847        0.3324627386
 H        -6.2360262981       -4.5007624294       -1.0643470391
 H        -7.1781689217       -5.6911692003       -2.0356227377
 H        -7.5203681262       -4.1980182172       -3.9330222967
 H        -6.2706917245       -3.0292799499       -3.3543991791
 H       -11.1483752450       -2.3476013415       -5.5933393311
 H       -10.8308290127       -0.5810108314       -5.3856727140
 H       -11.6675971157       -1.4465884423       -4.2322276950
 H       -10.4980272390       -4.4401628056       -4.0257167139
 H       -11.5536851705       -4.0307152733       -2.6672709710
 H        -9.9865817587       -4.8857640049       -2.4139197914
 H       -10.1054252457       -2.0954907614       -0.7007399625
 H       -11.5626767412       -1.9647219329       -2.0519675868
 H       -10.2109426687       -0.8461575304       -1.9054600281
 H        -5.0266942513       -7.4490144219       -4.5791661542
 H        -3.8842815142       -8.4798623417       -3.7893781159
 H        -3.3734211446       -6.7632358317       -4.1667262022
 H        -6.6540749028       -7.8884770899       -2.3689669269
 H        -6.0557956411       -7.3958882081       -0.7570666756
 H        -5.4092713824       -8.8403221480       -1.6832599986
 H        -4.6260069116       -5.2156821756        4.3661029604
 H        -4.0509356759       -3.5296388450        4.3148631678
 H        -3.0297050567       -4.9903092666        3.7916511745
 H        -6.4687349271       -3.3734056705        3.6763027849
 H        -6.4478990792       -4.9470323700        3.6422776358
 H        -7.0106243083       -4.1848641957        2.1458728792
 H        -0.7005465091       -2.5880245435       -0.3214506380
 H        -0.1545594180       -1.1659244448        0.5262094930
 H         0.1518676392       -1.2961859726       -1.2113220057
 H        -1.1386266986        1.0527659448        0.0731336708
 H        -2.5738380174        0.3753870830        0.7864005355
 H        -2.7485097899        1.3114778017       -0.5849359712
 H         2.9469257146        1.3205723550       -4.3570017305
 H         4.0016295536       -0.1051705625       -5.0146523304
 H         3.3619215368        0.0421390024       -3.2429229812
 H         0.8596625596       -1.0800258687       -6.5037262406
 H         2.5688796729       -0.6061107942       -6.6050914150
 H         1.3309021458        0.7227458167       -6.2953505369
 H         1.6843158366       -6.8376129517       -1.4274934330
 H         0.4999377916       -7.8303368628       -2.2857590044
 H        -0.0788072701       -6.3386401304       -1.7210736857
 H         2.5297842778       -7.8335108872       -3.6868480304
 H         3.1662401732       -6.4406060089       -2.9250273558
 H         3.2120627864       -6.4105552644       -4.8227660305
 H        -4.2009706876       -2.8324656488       -6.2296444562
 H        -5.4548140512       -4.0559362195       -6.6850757432
 H        -4.8449799750       -2.9204490902       -7.8614155552
 H        -4.2852620392       -6.5201059504       -6.8352631149
 H        -2.9985223030       -6.4952335241       -8.0860377424
 H        -4.6660297462       -6.0297910615       -8.5874913489
 H        -4.8126257596       -3.2464000374      -11.1446495663
 H        -5.2629858410       -2.3377216678      -12.4025141395
 H        -4.5098558184       -1.4827994183      -10.9476845933
 H        -3.0376781020       -4.3734975554      -12.8851014159
 H        -1.9858262299       -3.3000881522      -13.8071985227
 H        -3.7235705893       -3.1716872586      -14.1478451686
 H        -0.6634294644        2.2011951528      -18.5407132861
 H        -0.6483440469        0.4573963022      -18.2980581293
 H         0.1479781360        1.4276658184      -17.2895303987
 H        -2.4454094137        3.5292492119      -15.8483728521
 H        -1.3128761615        3.7421429680      -16.9584322131
 H        -0.9197639848        3.0466644359      -15.3468155722
 H        -6.8081747510        5.1165313969      -20.4379224888
 H        -5.0020624655        4.7568837921      -20.6396888976
 H        -5.9992033736        4.2941833817      -19.0967344174
 H        -8.4516968723        3.1681993280      -20.5299809847
 H        -7.6499522814        2.6622943014      -19.0116346029
 H        -7.7843788519        1.4332809590      -20.3455282651
 H        -6.6133884408        3.7804480267      -26.7460773227
 H        -7.7623238253        2.5767117164      -27.2830361281
 H        -6.2298190888        2.9295728200      -28.2627866826
 H        -5.1016343560        0.3715560841      -28.1584722112
 H        -6.9029296643        0.3897816983      -27.7769291798
 H        -5.7230568583       -0.4984431298      -26.5964516758
 H         1.2014762640        5.1340133854      -24.8353938945
 H         0.1076809945        5.0129676365      -26.1418522806
 H         0.7747744543        3.5293286570      -25.6255454944
 H        -0.9609107371        4.2168580689      -22.0399596009
 H         0.4146744685        5.1398177660      -22.4184582989
 H         0.4894041577        3.3456662851      -22.6462685278
 Na       -2.0599239460       -4.0002550856       -3.0897288915
 Na       -3.9302425872        4.0918423059      -23.3528756472
