232

 C        -0.8773371785        6.8309625555      -24.6109130239
 C        -1.4772000040        5.5206151903      -24.1732251485
 O        -2.5606868257        5.4217635717      -23.6452025237
 C        -0.7513995049        4.2437430968      -24.5884869943
 C        -1.7707816942        3.0931552835      -24.8084495197
 O        -2.1139141703        2.4429754144      -23.8625298613
 C        -2.2148996353        2.7104092080      -26.2034446320
 C        -3.4809185799        1.8352358278      -26.2636584044
 C        -4.8382618955        2.5446049488      -25.8266623747
 O        -4.8812336392        3.5505395811      -25.2036606211
 C        -6.0506553070        1.7793670180      -26.2293653055
 C        -6.7837871462        1.3639322930      -24.7830913778
 O        -6.3485457416        0.4714490445      -24.0807677799
 C        -7.9735846407        2.2842134994      -24.3572400949
 C        -8.0359439909        2.3052768784      -22.7742935086
 C        -6.9233380013        3.2205807748      -22.2309740935
 O        -6.3850976977        4.0994883234      -22.9473575874
 C        -6.6101892604        3.0932781903      -20.6745651790
 C        -5.2601662952        2.0876730963      -20.4740919372
 O        -4.2955787410        2.3935987390      -21.1681298514
 C        -5.1685909835        1.1067854193      -19.3375220033
 C        -3.6887656775        1.0090213293      -18.8192067406
 C        -3.3444420984        2.1212385519      -17.7933974517
 O        -4.2216414930        2.9716590560      -17.6427436569
 C        -2.0089153349        1.8893735529      -16.9613128272
 C        -2.1704692437        0.6946067872      -15.8077812966
 O        -2.6895288690       -0.3968624472      -16.0411812704
 C        -1.6647517991        0.9800265018      -14.4347305034
 C        -1.6167813582       -0.3464466692      -13.6605711449
 C        -2.8287281992       -0.7679350198      -13.0333975787
 O        -3.7681825089       -0.0326985977      -12.9579908741
 C        -2.9586257083       -2.1610104203      -12.2973405178
 C        -1.8470885229       -2.1382972554      -11.2627658022
 O        -0.7508092327       -2.5483961333      -11.5157205779
 C        -2.1461024546       -1.3761175811       -9.8990020152
 C        -2.2699415956       -2.4172337396       -8.7007029957
 C        -2.9049687514       -3.7738782275       -8.8768469983
 O        -3.0674860515       -4.3240527426       -9.9274477677
 C        -3.4849341530       -4.4946841317       -7.5465330690
 C        -2.4257019179       -4.5970365016       -6.4075511991
 O        -2.6053245085       -4.0338475954       -5.3436307622
 C        -1.1526208423       -5.4302184352       -6.8420759276
 C         0.1435218564       -5.2119313452       -6.0274311048
 C         0.1846277171       -6.3176903560       -4.8568752058
 O        -0.4984874077       -7.3041443066       -4.8783263330
 C         1.3020026046       -6.0925300519       -3.7326830764
 C         1.2805209044       -4.7060616359       -3.1266642853
 O         0.3336094910       -4.0178613929       -2.7427566989
 C         2.7086376405       -4.0258305171       -3.0544798703
 C         2.7243996831       -2.4199668954       -3.0274957291
 C         2.4139600500       -1.8333931851       -4.3645527741
 O         2.1863151746       -2.5726268110       -5.2586379325
 C         2.0739245701       -0.2079396443       -4.6113630045
 C         0.9095687468        0.1437550951       -3.5700973426
 O         1.0610873944       -0.0632532488       -2.4042204263
 C        -0.4396788706        0.6070907570       -4.1249324797
 C        -1.5535635942        0.6376795795       -3.1535813532
 C        -1.7576935390       -0.8461050201       -2.5745734393
 O        -1.7781709225       -1.8238265790       -3.3053611271
 C        -1.9882495802       -0.9549299069       -0.9496330472
 C        -3.3076418057       -1.7220701381       -0.7046533859
 O        -3.3162834329       -2.9443845473       -0.9393887437
 C        -4.5647048864       -1.1813671666        0.0212778092
 C        -5.2476174648       -2.3379174487        0.6677690234
 C        -4.1935033512       -3.0300379990        1.7448492142
 O        -3.1328540469       -2.4843490915        2.0158826402
 C        -4.6363862391       -4.4073880288        2.4504703136
 C        -4.6825977174       -5.5373664926        1.3447548066
 O        -5.5088232815       -5.4986064363        0.4044498971
 C        -3.6546730099       -6.7192783071        1.2742338627
 C        -3.8285607882       -7.6341787843        0.0165469369
 C        -3.5845799201       -6.6198290604       -1.1574613438
 O        -2.6537479680       -5.9178298562       -1.2385726583
 C        -4.6288613952       -6.7188788083       -2.4461363126
 C        -5.2004220520       -5.3266006170       -2.8362885206
 O        -4.4648672676       -4.4049728873       -3.1729827258
 C        -6.6203900847       -5.0207307805       -2.3971683748
 C        -7.1220000189       -3.7998816309       -3.1771532076
 C        -8.1603235322       -3.0047067669       -2.2231096796
 O        -7.8438809165       -2.6647399884       -1.0866429048
 C        -9.6016286436       -2.7908413365       -2.8968726746
 C        -9.4006028633       -1.8505603779       -4.2015545367
 O        -8.3195266439       -1.3371451868       -4.3750312382
 C       -10.5490706400       -1.7394550547       -5.1943685488
 C       -10.2633426359       -4.1718997014       -3.2858532500
 C       -10.6429598178       -2.1132756556       -1.9387373565
 C        -3.8183173301       -7.1757902270       -3.6253947547
 C        -5.7063635791       -7.7312836741       -2.1401534547
 C        -3.6445718568       -4.7300424520        3.6058987940
 C        -6.0148613512       -4.2966094093        3.1296543015
 C        -0.8063716072       -1.8764593634       -0.2942989820
 C        -1.9973313894        0.3438781679       -0.0918240487
 C         3.3379729361        0.5940748676       -4.2623681674
 C         1.6497098983       -0.1966221409       -6.0675765187
 C         1.0568827658       -6.9716184141       -2.4525091837
 C         2.7336844646       -6.5549621120       -4.2493749795
 C        -4.5849560931       -3.6287452214       -6.9949162481
 C        -3.9299235681       -5.9481208630       -7.9727836595
 C        -4.4322223415       -2.2040311387      -11.5720989822
 C        -2.7105874585       -3.3334203955      -13.2814958391
 C        -0.9997220196        1.3883150088      -17.9961261641
 C        -1.5840815793        3.2638901905      -16.3997968958
 C        -6.0597419320        4.5542195898      -20.0682257058
 C        -7.8245239454        2.6463655181      -19.8124452320
 C        -7.0584065275        2.4732577271      -27.2591263620
 C        -5.6631646339        0.3961537639      -26.8269654586
 C         0.1647711399        4.4794287737      -25.8701407606
 C         0.0515028949        3.9666236233      -23.3365765774
 H         0.1934018886        6.9266791426      -24.5171148288
 H        -1.1794885831        7.5350869997      -23.8165096775
 H        -1.1976874470        7.1410645982      -25.6094371551
 H        -1.5030206144        2.1685870971      -26.7633006763
 H        -2.4704725253        3.6439917442      -26.7797770547
 H        -3.4518687058        1.0895879111      -25.5497883962
 H        -3.4630209592        1.3958122898      -27.2610891550
 H        -8.9690076090        1.8246591581      -24.7000448566
 H        -7.8734908162        3.2132740462      -24.7768629348
 H        -7.8685899183        1.3003579938      -22.4529262439
 H        -9.0446962273        2.6338796786      -22.5770968822
 H        -5.4502736539        0.1110465568      -19.6418561011
 H        -5.9603652365        1.4037364858      -18.5688647763
 H        -2.9353142317        1.0368800327      -19.5699163914
 H        -3.5631987236        0.0344660541      -18.3891185626
 H        -2.3095828992        1.7234582171      -13.9350074082
 H        -0.7097494923        1.4621282034      -14.4548412975
 H        -1.0002139468       -0.1351573332      -12.8210276218
 H        -1.2820385006       -1.1270460894      -14.3102980448
 H        -3.1791819100       -0.9228182193       -9.8586146722
 H        -1.6162084762       -0.5514073669       -9.6033349721
 H        -2.5678075187       -1.8895067388       -7.7923721694
 H        -1.2707232769       -2.5651827506       -8.4727074682
 H        -1.0555432660       -5.3116071921       -7.9527362584
 H        -1.4652816769       -6.5022950864       -6.7885162018
 H         0.1204504331       -4.1432160056       -5.6308541940
 H         0.9894475739       -5.3332577791       -6.7062231164
 H         3.4806111393       -4.3462050447       -3.7519196949
 H         2.9689326650       -4.4173615052       -2.0828693160
 H         3.5915863484       -2.1195375344       -2.5541264631
 H         1.9543963745       -2.1481243778       -2.3492840670
 H        -0.7697710727        0.0393852133       -5.0553768157
 H        -0.2214293575        1.6826437407       -4.5645896334
 H        -2.4929499898        0.8745345512       -3.6699383168
 H        -1.5148205375        1.3987837373       -2.3774476565
 H        -5.1359033235       -0.6401156994       -0.6527716903
 H        -4.3403561089       -0.4304706577        0.8105992161
 H        -5.5960810742       -3.0245965883       -0.0629103346
 H        -6.0987037709       -2.0751311639        1.2598058136
 H        -3.7124654060       -7.2940927715        2.2782482966
 H        -2.6133736980       -6.2698281945        1.1033972678
 H        -4.7394645045       -8.1705597124        0.1520823415
 H        -3.0314092777       -8.4468393316        0.1148318076
 H        -6.5758694171       -4.8229490114       -1.3034056682
 H        -7.2411863726       -5.9029808733       -2.6218974108
 H        -7.5256364434       -3.9807508406       -4.0973305603
 H        -6.3139233895       -3.0603511334       -3.3953907788
 H       -11.4209887765       -2.3602794467       -4.8400334411
 H       -10.2832417584       -2.1636607636       -6.1259089001
 H       -10.7805355554       -0.7126143027       -5.3593642509
 H        -9.6567174876       -4.8107614550       -3.8608283152
 H       -11.3017208572       -4.0425966892       -3.7375490547
 H       -10.4972700670       -4.7301996770       -2.3861266436
 H       -11.2948098066       -2.9057544306       -1.4778922889
 H       -11.3975231757       -1.5797067867       -2.5824486840
 H       -10.2113628505       -1.4322749908       -1.2145561392
 H        -4.3025270552       -7.2999403585       -4.5411909282
 H        -3.4208447486       -8.1325937957       -3.4070716390
 H        -3.0821625922       -6.3963850011       -3.9053534307
 H        -6.4167078175       -7.9096761592       -2.9846297313
 H        -6.3965613738       -7.5046288846       -1.3696290545
 H        -5.2847020975       -8.7884996135       -2.0101677496
 H        -3.6018126406       -5.7371340649        3.8378419922
 H        -4.0704119831       -4.2332024625        4.4811429348
 H        -2.5888444307       -4.4339037785        3.5189210384
 H        -6.0802377939       -3.4631707046        3.8999985819
 H        -6.2559862115       -5.2951624359        3.5928304404
 H        -6.8412478854       -4.0375861928        2.4528517379
 H        -0.2311361100       -2.5082359057       -0.9612642231
 H        -1.3218761454       -2.6504246781        0.2788596332
 H        -0.1683298015       -1.2884802438        0.2771374878
 H        -1.1172293758        0.8345199770        0.0959868961
 H        -2.3065229049       -0.0012242134        0.8679173938
 H        -2.6441292196        1.1117915554       -0.3870829975
 H         3.3361666965        1.6004596593       -4.6750932745
 H         4.2180810462        0.1675007483       -4.8419234623
 H         3.3916568837        0.5023048349       -3.2077119039
 H         0.8422912108       -0.8413006937       -6.3840700431
 H         2.4805226645       -0.6457202453       -6.6012397881
 H         1.6114166244        0.7947215837       -6.5327256553
 H         1.8520420817       -6.7709205902       -1.7105373223
 H         0.8357338905       -7.9806895625       -2.6405401054
 H         0.0762774204       -6.7312435429       -2.1376751054
 H         2.6951668563       -7.5746196372       -4.5369698173
 H         3.3971937059       -6.5256093523       -3.3528612608
 H         3.1619969602       -5.8042942471       -4.9322315681
 H        -4.2983251218       -2.6137873175       -6.6718986391
 H        -5.1110991016       -4.1791031220       -6.2445612639
 H        -5.1988132600       -3.3714327640       -7.7816933223
 H        -3.9512133509       -6.5509299642       -7.0393507616
 H        -3.2234708414       -6.4275830751       -8.5993160652
 H        -4.8760358220       -5.9492589057       -8.4720030263
 H        -4.4846148827       -1.9344442736      -10.5372442613
 H        -4.7039748197       -3.2640090450      -11.6799574435
 H        -5.1608445923       -1.4905744795      -12.1426048203
 H        -1.9471043738       -3.9494994050      -12.7650921392
 H        -2.2461125608       -3.0996057693      -14.2227341334
 H        -3.6442141037       -3.8187667636      -13.4110368260
 H        -0.7980857494        2.0379252771      -18.8443307649
 H        -1.0951051144        0.3890966138      -18.4155638928
 H        -0.0712459453        1.3202759008      -17.5552500801
 H        -2.0119633414        3.5372668017      -15.4171875272
 H        -1.8787511574        4.0600465598      -17.0427803146
 H        -0.5085441363        3.3184863353      -16.1336988997
 H        -6.9218268715        5.1977706288      -20.0681734380
 H        -5.2975827718        4.8405658926      -20.8016712768
 H        -5.5818115732        4.3244960254      -19.1766198502
 H        -8.8308489937        3.1817079410      -20.1140159802
 H        -7.5732128669        2.8240062164      -18.7879416173
 H        -8.0438503745        1.5643074115      -19.8193106711
 H        -7.4754842388        3.3619708179      -26.8654903945
 H        -7.9319485207        1.9485774849      -27.5547333325
 H        -6.4897798176        2.6302773377      -28.0818631789
 H        -5.1701030018        0.6669253012      -27.8107792122
 H        -6.5404071772       -0.3060239141      -26.9226305979
 H        -5.0232080685       -0.1312468194      -26.1088218346
 H         1.1422458595        4.9082077293      -25.7159172905
 H        -0.3937166394        5.1619288686      -26.4815387321
 H         0.3018441190        3.5253947808      -26.4863867689
 H        -0.5888978333        3.8515289202      -22.5109400776
 H         0.6909777451        4.7667250801      -23.0595122946
 H         0.6181449397        3.0415330278      -23.4460291606
 Na       -1.9611484660       -4.1639455282       -2.9156381109
 Na       -3.8116446784        3.6744846025      -23.0605990689
