232

 C        -0.9521251741        6.8783294280      -24.6374668908
 C        -1.3689894943        5.4303547226      -24.2035028121
 O        -2.2460396516        5.2900051851      -23.3923781280
 C        -0.6455300379        4.1640983928      -24.7892705658
 C        -1.8627982943        3.1062591241      -25.0429564148
 O        -2.1861532246        2.4373663397      -24.0809757624
 C        -2.4624965615        2.9097369156      -26.4401871437
 C        -3.5517215658        1.7699431556      -26.5662721977
 C        -4.8809051801        2.3267563996      -25.9867988882
 O        -4.8319118958        3.4158516758      -25.4918631785
 C        -6.2318486661        1.5347120807      -25.9870688610
 C        -6.6754616302        1.4010971889      -24.5001931600
 O        -6.1261685228        0.6655857700      -23.7167166120
 C        -7.8970698912        2.1691027675      -24.0458903652
 C        -8.1052222473        2.3638195114      -22.5776172361
 C        -7.0002528682        3.1921201032      -22.0094045904
 O        -6.2471483445        3.7820296137      -22.7667517924
 C        -6.6622236584        3.1667930313      -20.5079245277
 C        -5.4304663224        2.1689421163      -20.2595323062
 O        -4.5233755699        2.2012739879      -21.0867249178
 C        -5.4328568789        1.0698992613      -19.1873754925
 C        -4.0655395544        0.7936713370      -18.6378859433
 C        -3.3808478885        2.2015383098      -18.0759997536
 O        -3.8992404043        3.2732107131      -18.2532699310
 C        -2.1976254934        2.0265798521      -17.1514034946
 C        -2.3904425483        0.7979523629      -15.9693422775
 O        -2.8985142771       -0.2891349181      -16.2279016686
 C        -1.7576302371        1.1014959159      -14.6271379571
 C        -1.5417623481        0.0045624123      -13.6324189483
 C        -2.8974321664       -0.5161480185      -13.0749850368
 O        -3.9341806706        0.0834795970      -13.0624622190
 C        -2.8339425238       -1.9033172181      -12.3249656538
 C        -1.8410737571       -2.0009723476      -11.1236703604
 O        -0.7306207594       -2.4268184590      -11.3689407824
 C        -2.1798449191       -1.3268467184       -9.7923524352
 C        -2.1481153607       -2.2836802202       -8.5127750310
 C        -2.8411832436       -3.5837157832       -8.7896037268
 O        -2.8248114990       -4.0605692186       -9.8985909899
 C        -3.4951038809       -4.3574706833       -7.6204848635
 C        -2.3396977847       -4.6878822770       -6.5900589964
 O        -2.5061429946       -4.5146849875       -5.4084865849
 C        -0.9584204490       -5.2157014598       -7.0080310919
 C         0.1203983964       -5.0397070347       -5.8384960888
 C         0.2334641455       -6.1522726326       -4.7495082113
 O        -0.5340315494       -7.0738734132       -4.6770610292
 C         1.4482201912       -6.0975204794       -3.7332932439
 C         1.4413935012       -4.6728777363       -3.2430699369
 O         0.4276504884       -4.0886720788       -2.8473829998
 C         2.7950391751       -3.9167119230       -2.9778476618
 C         2.6044745947       -2.3913690081       -2.9974852278
 C         2.2490699142       -1.8708277091       -4.4419843091
 O         2.1702110321       -2.5362501968       -5.4604165908
 C         2.1048516379       -0.2473400831       -4.5780995154
 C         0.9323600857        0.1896772600       -3.5671453274
 O         1.0666363061        0.0434100532       -2.3988922845
 C        -0.5620726696        0.3924167955       -4.1887410959
 C        -1.5151943622        0.5344655553       -2.9607536911
 C        -1.7741050036       -0.8866916530       -2.4133161461
 O        -1.6880775926       -1.7745767591       -3.2535237740
 C        -1.9445014762       -1.1708646815       -0.8870318542
 C        -3.3453530997       -1.9576698578       -0.7162378451
 O        -3.3813878654       -3.0931960661       -1.1797821667
 C        -4.5612520069       -1.3541967780        0.1628731288
 C        -5.2363382555       -2.4075410767        1.0130679269
 C        -4.2366741872       -3.1006446476        1.9550667737
 O        -3.0730457902       -2.6728308853        1.8822663676
 C        -4.6025911656       -4.4801860262        2.5690142060
 C        -4.7437078128       -5.5505038443        1.3950244848
 O        -5.4191252785       -5.3052506382        0.4252456454
 C        -3.7572428044       -6.7097078327        1.3976123044
 C        -3.8602689213       -7.4398763306        0.0309256573
 C        -3.6938880861       -6.6076973518       -1.2000295640
 O        -2.6252723593       -5.9379090261       -1.2466476174
 C        -4.4597593004       -6.7949792265       -2.5435731230
 C        -5.1107281003       -5.3187624291       -2.9122047765
 O        -4.4501529905       -4.4150962275       -3.3087162911
 C        -6.6238098760       -5.1243172917       -2.6024288852
 C        -7.0126461952       -3.6584593021       -2.8452057440
 C        -8.2712833834       -3.1611156340       -2.1595366449
 O        -8.3552935467       -3.0771205004       -0.9433801316
 C        -9.5140275422       -2.8176267802       -3.0154428577
 C        -9.2386342440       -1.8922336557       -4.2565701194
 O        -8.2602569349       -1.1774709509       -4.3297068762
 C       -10.3888042942       -1.7995665968       -5.2463164425
 C       -10.1731723932       -4.1553872236       -3.4772909543
 C       -10.5126524515       -2.1050488995       -2.0999490739
 C        -3.4018462205       -7.0681604067       -3.6484991678
 C        -5.3732748603       -7.9400207954       -2.4775062788
 C        -3.5530023513       -4.8048920391        3.6164050938
 C        -5.9219981087       -4.5801508131        3.3436837347
 C        -0.7415846862       -2.0684338685       -0.4075944940
 C        -2.0138963346        0.0446672335        0.0129121167
 C         3.3707146234        0.4964739162       -3.9196446198
 C         1.8587084135        0.2466818204       -5.9937941600
 C         1.1397469504       -7.1309564633       -2.5558628429
 C         2.5697523946       -6.6000280693       -4.6053182493
 C        -4.6588313669       -3.5857614385       -6.8774991745
 C        -4.0370323401       -5.8137702109       -8.1444679099
 C        -4.3655425279       -2.2535133768      -11.8449053025
 C        -2.3360131000       -3.0322585988      -13.3644138864
 C        -0.9073120552        1.4290735092      -17.9106081632
 C        -1.8068085370        3.4051341606      -16.4517138300
 C        -6.3398071509        4.6332524319      -19.9449515432
 C        -7.8360689573        2.6164150490      -19.6417218903
 C        -7.1453745415        2.4825832309      -26.8428079562
 C        -6.0484100484        0.1144780725      -26.4884826696
 C         0.0371906967        4.5085091334      -26.0964940202
 C         0.3773510933        3.6189897920      -23.7888057870
 H        -0.0798405345        6.9055930474      -25.2810228467
 H        -0.6707390104        7.5290401622      -23.7930116368
 H        -1.7741179646        7.3981305158      -25.2042231602
 H        -1.5925693338        2.5563431474      -27.0993227589
 H        -2.7645018756        3.9056733593      -26.9201512555
 H        -3.3018016556        0.8364754501      -25.9974486552
 H        -3.6056211051        1.5202959669      -27.6482677133
 H        -8.6862592802        1.4529373760      -24.6246947393
 H        -7.9023098470        3.0906673811      -24.5058722054
 H        -7.9696503295        1.3092580065      -22.1820699750
 H        -9.0908086249        2.8872533622      -22.4188459303
 H        -5.8944332278        0.1724759378      -19.4794757276
 H        -6.0492211559        1.5126165866      -18.3328103022
 H        -3.3746681210        0.2886752319      -19.2989033193
 H        -4.0802437370        0.1501015080      -17.6870738136
 H        -2.5000567706        1.7409856569      -14.1327080851
 H        -0.8068421652        1.7449444200      -14.7137266069
 H        -1.1565352966        0.5478888995      -12.7419709067
 H        -0.9343543365       -0.8066393950      -13.9914666566
 H        -3.2456027809       -0.8661372820       -9.6570556624
 H        -1.5398559804       -0.4875247051       -9.7122967017
 H        -2.7153083264       -1.8159743628       -7.7965527393
 H        -1.1129412822       -2.2665656349       -8.0326815336
 H        -0.6457584762       -4.7446290891       -7.9485361611
 H        -1.1071696247       -6.2551667687       -7.2844833814
 H        -0.1593626841       -4.1683747214       -5.3413693889
 H         1.0379346718       -4.8553537945       -6.3474795475
 H         3.5887215887       -4.1133286331       -3.7294213431
 H         2.9924214664       -4.4044047872       -2.0102273976
 H         3.5801426094       -1.9836057946       -2.5860542942
 H         1.7438348773       -2.2252327418       -2.2410647323
 H        -0.8324814131       -0.3196923695       -4.8625856977
 H        -0.5493622231        1.3159846687       -4.7027023658
 H        -2.4494841117        1.0969171906       -3.2503779760
 H        -1.0904225099        1.2086238020       -2.1660205052
 H        -5.3056953187       -0.9905527804       -0.5751711073
 H        -4.3386978747       -0.4002421389        0.7005420662
 H        -5.6817326272       -3.1740058793        0.4079674013
 H        -6.1408220455       -1.9996595838        1.5887327704
 H        -4.0164290184       -7.3251506816        2.2923523314
 H        -2.7714622964       -6.3787323211        1.6069944284
 H        -4.7232595341       -8.0329151331        0.1469008754
 H        -3.1471163476       -8.2313269363       -0.0154061932
 H        -6.8036983834       -5.3959005822       -1.5624289426
 H        -7.1110918418       -5.7344832902       -3.3080399176
 H        -7.0460490079       -3.4445242532       -3.8790163178
 H        -6.2489909318       -2.9274003184       -2.5164437515
 H       -11.2271180195       -1.1071476345       -4.7853040334
 H       -10.9334032690       -2.7030574106       -5.3773892121
 H       -10.0447689293       -1.2372839193       -6.1562727370
 H        -9.6569090302       -4.7496910543       -4.2039110736
 H       -11.2634351336       -3.9431771712       -3.8148126926
 H       -10.3077463467       -4.7925345784       -2.6523820569
 H       -10.5805475117       -2.5929144132       -1.1671691593
 H       -11.5180857776       -2.2203807326       -2.4948866947
 H       -10.2754160341       -1.1097583725       -2.0247789487
 H        -3.7157781562       -6.9073797595       -4.6832688044
 H        -3.0232325970       -8.0600821323       -3.5345204098
 H        -2.5717250701       -6.2978070639       -3.6391311934
 H        -5.8642655436       -8.1333404734       -3.4051766137
 H        -6.2142059057       -7.7804048244       -1.8279655148
 H        -4.9623199308       -8.8296835336       -1.9904857903
 H        -3.8917491478       -5.5998811280        4.2077502292
 H        -3.3648767353       -3.9666457064        4.2925528391
 H        -2.5366575419       -5.0945759515        3.2502834994
 H        -6.1314490801       -3.7142572211        3.9120359058
 H        -5.9634602705       -5.5498421283        3.7632571800
 H        -6.7524773849       -4.5954072207        2.6924753913
 H        -0.2460736429       -2.5944602746       -1.2484812433
 H        -1.0239928816       -2.8603664205        0.3435935789
 H         0.0855564194       -1.4705008204        0.0113046133
 H        -1.1092699888        0.7068847730       -0.1597935831
 H        -1.9012017341       -0.1551933604        1.0948573416
 H        -2.7956199498        0.8246419537       -0.2579452251
 H         3.0972164801        1.5141320847       -3.8880919837
 H         4.3136986583        0.4289502577       -4.5207668946
 H         3.4608071237        0.1184487301       -2.9078689529
 H         1.0765117247       -0.3344922749       -6.4891028877
 H         2.6862557298        0.2489524235       -6.6830556975
 H         1.5034331407        1.2799550287       -5.9908620231
 H         2.0186910222       -7.1719903436       -1.8690349396
 H         0.8651738993       -8.1051242596       -2.9400033394
 H         0.1980088817       -6.8476787231       -2.0509167965
 H         2.1864163129       -7.5170385399       -5.0494411410
 H         3.4331261370       -6.8370900074       -3.9791205807
 H         2.8533993899       -5.8453049912       -5.2971102297
 H        -4.4592551257       -2.4678337922       -6.7602964275
 H        -4.7582017645       -3.9656977202       -5.8165396941
 H        -5.6395587558       -3.6381996029       -7.3849817426
 H        -3.1461871775       -6.4504344671       -8.3594401189
 H        -4.5494938352       -5.6661645956       -9.1149479893
 H        -4.6649559800       -6.3769630766       -7.4659885183
 H        -4.6451107200       -1.5166601388      -11.1901596154
 H        -4.4795432699       -3.2647354992      -11.5446553042
 H        -4.9780873049       -2.2804777798      -12.8322422502
 H        -2.4034404065       -3.9870222472      -12.8201031738
 H        -1.2935785906       -2.8673073142      -13.6933701800
 H        -3.0562684924       -3.0264888376      -14.1774113923
 H        -0.5130453259        2.0263438207      -18.8162699540
 H        -1.1067894311        0.4627765885      -18.4327995484
 H        -0.0501709201        1.3195556780      -17.3209695077
 H        -2.4892663213        3.5697032514      -15.6352049389
 H        -1.9464702673        4.2357679809      -17.1937329918
 H        -0.7535968088        3.5828971548      -16.1328573253
 H        -7.2912815134        5.0697078029      -20.0629621485
 H        -5.5620829787        5.0790416709      -20.6309580160
 H        -5.9502466513        4.4724051104      -18.9670474364
 H        -8.7452708756        3.2206511523      -19.7826464025
 H        -7.6548655461        2.7602801775      -18.6151342604
 H        -8.1321326317        1.5979324992      -19.8196955236
 H        -7.0627842961        3.5559519723      -26.4407485945
 H        -8.2456373373        2.2476221688      -26.6775890764
 H        -7.0642755976        2.4050526043      -27.9313154943
 H        -5.7536861510        0.1714965163      -27.4985368389
 H        -7.0149434093       -0.3569821647      -26.5281073831
 H        -5.4584577608       -0.4780973212      -25.8176261876
 H         0.7591968888        5.3083256664      -26.0514745191
 H        -0.6848599022        4.7039115274      -26.8794932151
 H         0.7240746720        3.6996209260      -26.3186169575
 H         0.0172517520        3.3937345052      -22.8208010399
 H         1.1634922462        4.4066736371      -23.6365760047
 H         0.8834690774        2.6301280742      -24.1486556403
 Na       -2.1788867143       -4.0888655087       -2.8352058138
 Na       -4.0743238319        3.7189020363      -23.0464829318
