232

 C       -20.5770597288       -7.8190630109       -4.3320564912
 C       -20.4147186785       -6.4009700887       -3.8917585668
 O       -19.5989205945       -6.0935306617       -3.0847817641
 C       -21.2872786173       -5.0485089412       -4.3410113650
 C       -20.2023804165       -4.0403682504       -4.7717211635
 O       -19.7075694352       -3.2553491516       -3.9863213583
 C       -19.6777685228       -3.9953148264       -6.2437780248
 C       -18.1739812897       -4.3189235810       -6.3719519521
 C       -17.3039330930       -4.0683413940       -5.0582346268
 O       -17.0779469597       -5.0125875474       -4.2807499535
 C       -16.6395973973       -2.6647965711       -4.7988208358
 C       -16.5005950771       -2.5337633245       -3.2725431412
 O       -17.4154512552       -2.2150635651       -2.5591788905
 C       -15.2212975402       -3.0884921804       -2.7295841449
 C       -15.1652209407       -3.3245562935       -1.1219395881
 C       -15.6552763398       -4.6858303139       -0.5940719726
 O       -16.7624562157       -5.1619162045       -0.8781031044
 C       -14.7164239465       -5.4185865034        0.4197858990
 C       -13.3509685767       -5.6649447962       -0.4480875339
 O       -12.6062832836       -4.6987964913       -0.4371677354
 C       -13.0939486606       -6.8058414771       -1.3868905786
 C       -11.6223421215       -7.1856453414       -1.6206768370
 C       -11.6590646167       -8.1180097265       -2.9321173455
 O       -12.5007428540       -7.9201499563       -3.7834529330
 C       -10.5661173440       -9.3036376889       -2.9567212146
 C        -9.1600377347       -8.7776648431       -2.4776108597
 O        -8.8210323426       -8.8498617947       -1.3139399802
 C        -8.5259888606       -7.9909659407       -3.5757459378
 C        -7.3598051217       -7.0740714590       -3.1590483799
 C        -7.6767922552       -5.6335258024       -3.7116084239
 O        -8.7983843154       -5.3302885838       -3.8815885927
 C        -6.3609184895       -4.7014390190       -4.0110728530
 C        -5.7422105640       -5.3263826732       -5.3148655003
 O        -6.1575216696       -6.3553144991       -5.8571564884
 C        -4.5649192505       -4.5299220370       -5.9581572312
 C        -4.0592252348       -5.0828223419       -7.3373260551
 C        -3.2077724394       -3.9494183747       -8.1157563850
 O        -3.6831418595       -3.2079499237       -8.8869896354
 C        -1.6500255574       -3.9790868374       -8.0306067973
 C        -1.0597182799       -4.9896320714       -9.0506856833
 O        -0.0974007105       -5.6702789995       -8.6749278612
 C        -1.5997220427       -5.2484013150      -10.4659077864
 C        -0.4329409069       -5.7775016101      -11.4563416605
 C         0.3406140763       -4.6862187355      -12.2517536216
 O        -0.1224909598       -3.5772391416      -12.4623467649
 C         1.9069070318       -5.2148970755      -12.5439686605
 C         2.8273396933       -4.2156769676      -13.3772133657
 O         3.8339932625       -4.5877118590      -13.9595235748
 C         2.7047155289       -2.7030797484      -13.0401384039
 C         3.4719065866       -1.8324614382      -14.0279576738
 C         3.2963772363       -0.4223963973      -13.4175674145
 O         2.2735545757        0.1586784969      -13.3697808512
 C         4.6285517014        0.3233342494      -12.8302397207
 C         5.0392046789        1.2818203550      -13.9656855165
 O         6.0984423370        1.1805854071      -14.5289845070
 C         4.0110248712        2.2273324338      -14.5167285473
 C         4.0112688923        3.4643960779      -13.5762988229
 C         5.3532742272        4.1989188721      -13.4349857824
 O         6.3093755773        3.8628517696      -14.1816277911
 C         5.4070067772        5.4818356597      -12.6088701368
 C         5.8566542138        6.6438854295      -13.5369664774
 O         5.1555640033        7.6251218110      -13.7522619105
 C         7.3110334700        6.4670769387      -14.1746897209
 C         7.3377576415        7.1116928041      -15.4720708729
 C         6.8821410623        6.4270945531      -16.7737570363
 O         6.6136840032        5.2630853305      -16.9887197331
 C         6.7980280964        7.2970637588      -18.0630956390
 C         8.4553800590        6.8715141696      -18.6116501598
 O         9.2655691296        6.3873667390      -17.8720528301
 C         8.8111494964        7.2468350206      -20.0246344917
 C         9.4377491670        6.0631388390      -20.8177796301
 C         8.5141069689        4.9609973918      -21.2100323543
 O         7.3324443757        4.9241013504      -20.9121867290
 C         9.1482192334        3.8470018299      -22.0834525947
 C         8.7431430352        2.4436393422      -21.3558161883
 O         7.8192022541        1.7244219861      -21.6772914618
 C         9.7813070630        1.9780318557      -20.2736258171
 C         9.1463742422        0.7136834513      -19.6252831025
 C         7.9242251655        1.1464161384      -18.6322786965
 O         8.0977754365        2.1279486859      -17.9363592495
 C         6.6092840557        0.2613514731      -18.5846943476
 C         5.3377278592        1.1629224182      -18.5165811728
 O         5.3373811238        2.1322744204      -17.7465798645
 C         4.3461430871        0.9863834044      -19.6521205263
 C         6.4400404803       -0.8440153669      -19.6440676735
 C         6.5896881636       -0.5156728115      -17.1746451797
 C         8.3120317682        3.9064199594      -23.4120843641
 C        10.6221501234        3.9589157530      -22.3695592676
 C         5.6993179422        6.8697821331      -19.0077909561
 C         6.7582267933        8.8334108788      -17.8187019791
 C         4.0707101822        5.8848670088      -11.9130133650
 C         6.5314418214        5.0280627070      -11.5957384622
 C         4.1904211838        1.0150463058      -11.5076491613
 C         5.9572761453       -0.4746804878      -12.4116225711
 C         2.5073652283       -5.5033975546      -11.1605245602
 C         1.8564304488       -6.4246249756      -13.5618887043
 C        -1.1870320391       -2.5042596684       -8.3677258112
 C        -1.2609881919       -4.4942992731       -6.6463897943
 C        -6.8176133708       -3.2330210409       -4.2282345952
 C        -5.3800221838       -4.8600679668       -2.7715251357
 C       -11.1588466407      -10.2499203801       -1.8310897383
 C       -10.5880358337      -10.0115615181       -4.3951402390
 C       -14.5618630583       -4.5555288757        1.6781718836
 C       -15.4759358507       -6.8246133742        0.8687772356
 C       -15.3261019969       -2.6463744258       -5.6418636891
 C       -17.4821407073       -1.4812396680       -5.2851337042
 C       -22.2910283671       -5.3849480242       -5.4378142889
 C       -21.8434478784       -4.6508303780       -3.0015914445
 H       -21.3402557056       -7.9086912790       -5.0871576073
 H       -20.9864742025       -8.3339595750       -3.4218960061
 H       -19.5242244544       -8.2178848534       -4.4865096964
 H       -19.8525754303       -2.9633454307       -6.5061632276
 H       -20.2618894139       -4.6592451370       -6.8497626293
 H       -17.7932580925       -3.6847424829       -7.1599176911
 H       -17.9427303508       -5.3342607993       -6.7833887908
 H       -14.3573013808       -2.3513659833       -2.8270392281
 H       -14.8782445122       -3.9891276663       -3.2306560173
 H       -15.8065173472       -2.4877138746       -0.6288605237
 H       -14.1799536309       -3.2114432788       -0.8031741864
 H       -13.5642949353       -6.6211147161       -2.3764869550
 H       -13.5118187603       -7.7522542775       -1.0370883527
 H       -11.3384388887       -7.8669025350       -0.7687398192
 H       -11.0404847951       -6.3101857324       -1.6896043920
 H        -9.3452765813       -7.4243633629       -3.9096299995
 H        -8.2065024058       -8.5008417105       -4.4657603914
 H        -6.4763277011       -7.5045147279       -3.6113015751
 H        -7.1415197773       -7.1416746671       -2.1279787992
 H        -3.7988526593       -4.3236491659       -5.1145966872
 H        -4.8631980931       -3.4447057317       -6.1605558819
 H        -4.8655217467       -5.2851591135       -8.0451827241
 H        -3.5622033959       -6.0818429677       -7.3229461522
 H        -2.0670091205       -4.3717155489      -10.9902752472
 H        -2.3926222074       -5.8941676907      -10.3891256782
 H        -0.9055761880       -6.3741082789      -12.2279624389
 H         0.2055946073       -6.5736294225      -11.0017220039
 H         3.2021488334       -2.4956300654      -12.0411878554
 H         1.6424349990       -2.4063272927      -12.8368569838
 H         3.1349237385       -1.8311647060      -15.0246364061
 H         4.4433323661       -2.3359777765      -13.9728437960
 H         3.0498208084        1.7049349283      -14.4500807236
 H         4.3787279329        2.4949273213      -15.5210231768
 H         3.8944439951        3.0529261305      -12.6053814307
 H         3.1433522571        4.0379314813      -13.9581871071
 H         7.5441664772        5.3955035674      -14.2565501361
 H         7.9815879141        6.9650439147      -13.4614561801
 H         8.2172101605        7.6045344022      -15.7601933465
 H         6.5906217360        8.0563964633      -15.3260038295
 H         9.5617354489        8.0890204026      -20.0758709719
 H         7.9464650950        7.6326173620      -20.6072635188
 H        10.2537825165        5.5246551385      -20.3820486526
 H         9.8894922427        6.4970500241      -21.7526523371
 H         9.8745791163        2.8479403917      -19.5988870870
 H        10.6031203667        1.5517978065      -20.7930866762
 H         9.9811782693        0.1305499049      -19.2013428482
 H         8.7225291136        0.0813821898      -20.4073764700
 H         4.0239440118       -0.0023528452      -19.7390752521
 H         4.8134169041        1.3352619644      -20.5961614712
 H         3.3867474633        1.5872136622      -19.4410837249
 H         5.4355235942       -1.3024484928      -19.5201534496
 H         7.2827931940       -1.6491753945      -19.5255148585
 H         6.4997930495       -0.3260019419      -20.6274177837
 H         7.4571420911       -1.2074993569      -17.1223395815
 H         5.6797112438       -1.1396556549      -17.2073440045
 H         6.7178726911        0.3024272253      -16.4212981878
 H         8.9562087695        3.5528221761      -24.2386669264
 H         8.0361302112        4.9463061298      -23.4655793761
 H         7.3876428385        3.3345880253      -23.4986999956
 H        10.9153296152        3.2133041554      -23.0684215561
 H        11.2604000664        3.8100944671      -21.5200705567
 H        10.8967521096        4.8610583227      -22.8558860949
 H         4.7067136728        7.0879741852      -18.5936990865
 H         5.5877465944        5.8087390358      -19.3045168034
 H         5.8073259237        7.3326239111      -20.0176731688
 H         7.6549787361        9.1481334931      -17.3303783146
 H         5.8371351436        9.1331257846      -17.2165551749
 H         6.6630861051        9.2962783924      -18.7739719039
 H         4.3103667006        6.8530257683      -11.3667432626
 H         3.7180901176        5.0595788755      -11.2719655890
 H         3.3603125867        6.1402299069      -12.7181722743
 H         6.2361741917        4.0225491447      -11.3097992949
 H         6.4778795682        5.6871539094      -10.7717528633
 H         7.5299629671        5.0043576975      -11.9616796435
 H         5.0786258235        1.5872881643      -11.2188807480
 H         3.7947652779        0.3764820171      -10.6830616802
 H         3.3190631607        1.7650091583      -11.7159240816
 H         5.8298201931       -1.4975719862      -12.1087638558
 H         6.4562707513       -0.0175882284      -11.4678817646
 H         6.8363324423       -0.5536120606      -13.0880180161
 H         1.7386938563       -5.3655801166      -10.4511905904
 H         3.3525468746       -4.7884132400      -10.9578534126
 H         2.8416263717       -6.5350837151      -11.0720447022
 H         1.7442449821       -7.3146793176      -13.0585390224
 H         2.7800369145       -6.4654669103      -14.1386628009
 H         1.0725918055       -6.3527615290      -14.3165383569
 H        -1.3008510876       -1.7715924870       -7.5678596208
 H        -1.8276424642       -2.1330501565       -9.1967097606
 H        -0.1100784629       -2.5355378660       -8.7086046134
 H        -1.6759366193       -5.4983996727       -6.4104529351
 H        -1.5957663257       -3.8934135327       -5.8252746735
 H        -0.1596628346       -4.6074734991       -6.5431206185
 H        -7.5666342749       -3.1882826309       -4.9768000124
 H        -6.0162080061       -2.6435170778       -4.6094549926
 H        -7.2272925087       -2.8399223896       -3.2370370135
 H        -5.8062873271       -4.4028649054       -1.8684000688
 H        -4.3365437909       -4.5015154611       -2.8709143986
 H        -5.3294053549       -5.8919463377       -2.5606348678
 H       -11.8435907175      -11.0543757008       -2.1350478419
 H       -11.6417396260       -9.6540557111       -1.0420803729
 H       -10.3613757099      -10.6744643031       -1.2481176072
 H       -11.5112518827      -10.4807973841       -4.6318854685
 H        -9.7757373025      -10.7138834053       -4.3014591764
 H       -10.2421084193       -9.2305490137       -5.1246296512
 H       -15.4745006680       -3.9203829514        1.9195944420
 H       -13.8116082919       -3.8472563259        1.5620638453
 H       -14.1950155970       -5.0719398870        2.5717602234
 H       -15.1257363327       -7.6451704109        0.2168635954
 H       -16.5912681193       -6.8243663029        0.8002701898
 H       -15.1182731492       -7.0141273291        1.8201871666
 H       -14.4924077794       -3.2459828383       -5.2273461960
 H       -15.0200683546       -1.6352820599       -5.7852533678
 H       -15.5141509758       -3.1502878897       -6.5962820477
 H       -18.4529011853       -1.4603126590       -4.6192435152
 H       -17.8327378968       -1.6142446809       -6.2933238644
 H       -16.7410748357       -0.6259561114       -5.2310606133
 H       -21.8669168287       -5.8390065034       -6.3456199270
 H       -22.7111612263       -4.5476211200       -5.8272893639
 H       -23.0872370495       -5.9983124105       -5.1881398605
 H       -21.9550082194       -3.5468395429       -2.8408585467
 H       -21.2848379921       -4.9529277433       -2.1169640310
 H       -22.8301488034       -5.0465653088       -2.8953193998
 Na      -18.3767883928       -4.3332036587       -2.0937072015
 Na        6.8852974929        3.0387808168      -16.2739560056
