232

 C        -0.9577625762        6.7745783878      -24.5780846489
 C        -1.3613413709        5.3169517037      -24.2237544669
 O        -2.1444937818        5.2049130136      -23.2998426437
 C        -0.6899174713        4.1166504840      -24.9598861226
 C        -1.8725434215        3.0789676435      -25.0972143247
 O        -2.2924679131        2.4863381576      -24.1409160153
 C        -2.4596787002        2.8914081285      -26.5256661398
 C        -3.4620428050        1.7778706908      -26.6095596455
 C        -4.8008654608        2.3189622322      -25.9899441004
 O        -4.7706760135        3.4115459152      -25.5311242593
 C        -6.2027982851        1.5098421214      -25.9559535596
 C        -6.6447586764        1.4436155719      -24.4195727090
 O        -6.0508369381        0.7520189738      -23.6206049646
 C        -8.0874668630        2.1907796952      -23.9615770753
 C        -8.1634067752        2.3460610512      -22.4323330712
 C        -6.9302488374        3.0981356538      -21.9091618494
 O        -6.3568087183        3.8490935749      -22.7147227538
 C        -6.6741640854        3.1160680096      -20.3606342064
 C        -5.4164508350        2.1470999817      -20.1621752090
 O        -4.5428422047        2.1577282259      -21.0054546749
 C        -5.4357329970        1.1466956163      -19.0548375276
 C        -4.0900098744        0.8253106088      -18.6016991923
 C        -3.3999816112        2.1049200791      -18.0682209812
 O        -3.8739753669        3.1739163981      -18.5234162035
 C        -2.2340246207        1.9383423619      -17.1347656594
 C        -2.3904128362        0.9194057543      -15.9675725541
 O        -2.9049667031       -0.1623072677      -16.1555869286
 C        -1.8360847869        1.3355343318      -14.5733096723
 C        -1.5769502324        0.1347882518      -13.6331371635
 C        -2.8180429793       -0.4812886223      -13.0511759808
 O        -3.8505333142        0.1270253333      -13.0696697330
 C        -2.8656560260       -1.9686207770      -12.3991545992
 C        -1.8798324686       -1.9923152494      -11.1964565200
 O        -0.7366984530       -2.3379591806      -11.2987351613
 C        -2.3461017847       -1.2848375238       -9.8199342438
 C        -2.0814696690       -2.1663854409       -8.5602189942
 C        -2.7136455381       -3.5715995241       -8.7218551334
 O        -2.7191529280       -4.0347027886       -9.7969979030
 C        -3.3055549931       -4.4375279143       -7.5101877984
 C        -2.3108887416       -4.7660241825       -6.4104386844
 O        -2.6235906191       -4.4774448240       -5.2624729441
 C        -0.9381876358       -5.2260334677       -6.8821072065
 C         0.1098325775       -4.9426546537       -5.8712709808
 C         0.0919609001       -6.1213240532       -4.8356707656
 O        -0.7690435175       -6.9557853417       -4.8468765251
 C         1.3414342691       -6.1149267508       -3.8623434966
 C         1.4307128112       -4.7253496887       -3.1677055493
 O         0.4665735634       -4.0266721279       -2.9304627842
 C         2.8708437156       -3.9604407923       -3.0383664181
 C         2.5316110763       -2.3700686168       -3.1287101663
 C         2.2889002289       -1.8006098021       -4.4608145287
 O         2.0999642124       -2.4355516567       -5.4380389070
 C         2.0952228524       -0.1981517837       -4.4458266084
 C         0.8513142003        0.0900643453       -3.5832854569
 O         1.0225353398        0.1145318865       -2.3734022308
 C        -0.5715755923        0.4299922387       -4.1126627237
 C        -1.5110143549        0.4819403150       -2.9123528279
 C        -1.7836482965       -0.9709648525       -2.4056829066
 O        -1.8347133777       -1.8896170471       -3.2319083459
 C        -1.9662412049       -1.1891515989       -0.8427380600
 C        -3.3330118336       -1.9592838111       -0.6449578959
 O        -3.5898370235       -3.0782950706       -1.0977801845
 C        -4.4809376333       -1.2796828068        0.0586606379
 C        -5.1361267008       -2.3951463916        0.9163173814
 C        -4.0866368831       -3.1553175926        1.8177858001
 O        -2.9698873887       -2.7495632473        2.0386525138
 C        -4.5264127714       -4.5473973709        2.5627490731
 C        -4.6177265362       -5.4916636871        1.3758782363
 O        -5.4987438696       -5.2840862434        0.4950818059
 C        -3.6891496286       -6.7188188792        1.1716811247
 C        -4.0147535819       -7.5469570832       -0.1059162739
 C        -3.4925365218       -6.6223361197       -1.2092790667
 O        -2.6025229066       -5.8618632473       -1.1862305304
 C        -4.4164139705       -6.7330279583       -2.5508994505
 C        -5.1321500118       -5.3773619052       -2.8386435549
 O        -4.5252008680       -4.4687560323       -3.4255180720
 C        -6.6452437047       -5.1430120376       -2.5453848183
 C        -6.9561034354       -3.6697014391       -2.8667481702
 C        -8.2802764951       -3.2584043738       -2.0513623100
 O        -8.3016120100       -3.3011051579       -0.8370169486
 C        -9.5399615289       -2.8094463200       -2.9894868216
 C        -9.2178779464       -1.8847082216       -4.2489119382
 O        -8.1985027893       -1.2104985301       -4.3393027232
 C       -10.2880814457       -1.7468667142       -5.2904037915
 C       -10.1539832325       -4.1823799357       -3.5307657850
 C       -10.6752286256       -2.0713393992       -2.1873705148
 C        -3.2831851068       -7.0929632650       -3.6080888757
 C        -5.4141916648       -7.9217494400       -2.5561421332
 C        -3.4722118874       -4.8696719069        3.7022026352
 C        -6.0026031211       -4.4916818587        3.2736461595
 C        -0.8674663744       -2.0546786167       -0.3266818774
 C        -2.0043778830       -0.0477400109        0.1520242759
 C         3.4257456011        0.4579188100       -3.8728462371
 C         1.9037270200        0.2480102071       -5.8465519711
 C         1.2002811351       -7.0373644876       -2.6501289167
 C         2.6119486339       -6.5810564487       -4.6515805977
 C        -4.4751184869       -3.7256719104       -6.7818681340
 C        -3.9748759214       -5.6751572768       -8.2814941283
 C        -4.3473822890       -2.2105969501      -11.9655301812
 C        -2.3101793944       -3.0768985004      -13.3289389303
 C        -0.9674310840        1.5955235306      -18.0114939129
 C        -1.8506169826        3.3412223995      -16.6086590748
 C        -6.4372693779        4.6873773481      -19.9934375832
 C        -7.8920624295        2.6651834339      -19.5691856765
 C        -7.1495440755        2.3552833430      -26.8158053144
 C        -6.2077325743        0.0368645227      -26.4488602358
 C         0.0164615510        4.5176819443      -26.3416308634
 C         0.2625737800        3.6212561683      -23.9188905179
 H        -0.0316299994        6.8032755744      -25.1702804008
 H        -0.7427380133        7.3261092890      -23.6252484792
 H        -1.7149110199        7.3648737527      -25.0585749441
 H        -1.7852496862        2.9582689682      -27.3857689312
 H        -3.0683744871        3.8997662518      -26.5538288007
 H        -3.1398754005        0.9609619607      -26.0247331725
 H        -3.6349354829        1.4034491803      -27.6461325322
 H        -8.7464322783        1.5500680590      -24.5007879523
 H        -8.1549938308        3.2135613854      -24.3508080453
 H        -8.2270796150        1.3436987906      -22.0174184397
 H        -8.9875637431        3.0796624828      -22.2072721379
 H        -5.7566672095        0.2385960087      -19.5473362212
 H        -6.1845993626        1.3680283574      -18.2675915089
 H        -3.5560228104        0.5430292184      -19.5074260442
 H        -3.9066604043        0.0705650971      -17.8588601821
 H        -2.5652018446        2.0762303419      -14.1305174345
 H        -0.8736217631        1.8241497745      -14.6413014430
 H        -0.9571511150        0.4603752399      -12.8360715173
 H        -1.1335978536       -0.6497710132      -14.2228455064
 H        -3.4632559401       -1.2164684719       -9.7463877682
 H        -2.0088280844       -0.2777644035       -9.8067295040
 H        -2.1976014640       -1.6248108290       -7.5823805813
 H        -1.1037784529       -2.3576269635       -8.5971818852
 H        -0.7659286660       -4.6150784020       -7.8103974481
 H        -0.9383730526       -6.2779134802       -7.2551853999
 H        -0.1016821604       -3.9620530421       -5.4307238388
 H         0.9984278671       -4.8680072549       -6.4061758838
 H         3.5517716889       -4.3177672899       -3.8330025157
 H         3.2645828239       -4.1768097972       -2.0637615105
 H         3.3902096109       -1.9102788270       -2.7006110505
 H         1.7124779926       -2.2983484817       -2.4107988340
 H        -0.9233443910       -0.3669346783       -4.8225430441
 H        -0.5813788785        1.3942484902       -4.6850030208
 H        -2.5254116039        0.8015340268       -3.3559461660
 H        -1.3591451568        1.2503003265       -2.1410473015
 H        -5.1856054210       -0.8005190541       -0.5571711011
 H        -4.1212536390       -0.4512437891        0.6988113389
 H        -5.7652583870       -3.0832602472        0.3897509884
 H        -5.8147994957       -1.9590222238        1.6054566387
 H        -3.7905390563       -7.2720885252        2.1668571970
 H        -2.5696853658       -6.4767514244        1.1333902835
 H        -4.9839252807       -7.9170333688       -0.0600697525
 H        -3.5198051240       -8.5401136034       -0.0781132121
 H        -6.9299599825       -5.3871609910       -1.5522458715
 H        -7.0700484697       -5.7566796391       -3.3087843683
 H        -6.9231365937       -3.4251661120       -3.8640915474
 H        -6.2125097434       -3.0192874865       -2.4136006768
 H       -10.9705607152       -0.8798914582       -5.0764658486
 H       -10.9830080112       -2.6228824972       -5.3014263550
 H        -9.7733918355       -1.4733606612       -6.2042259630
 H        -9.5281813968       -4.7127160757       -4.2279029205
 H       -11.1378182408       -4.0594556993       -3.9745033739
 H       -10.2894247725       -4.9143193567       -2.7059791401
 H       -10.7861509851       -2.4437696745       -1.2109722633
 H       -11.5921550492       -2.3210130575       -2.6203965606
 H       -10.6350101404       -1.0101487241       -2.2129831691
 H        -3.5307432911       -7.1208822415       -4.6115975545
 H        -2.9165552481       -8.0579261176       -3.2671117997
 H        -2.4700004143       -6.3892588856       -3.6241617773
 H        -5.7617868899       -8.0822700454       -3.5689413914
 H        -6.3028946321       -7.8006226970       -2.0120435713
 H        -5.1084103735       -8.8239217636       -2.0193636724
 H        -3.6900200930       -5.7652722608        4.2298950644
 H        -3.4419368920       -4.0888620899        4.4224243433
 H        -2.4993336359       -4.8946715675        3.3063443735
 H        -6.0499286467       -3.6938089406        3.9812615534
 H        -6.2542748654       -5.4809871474        3.5479531079
 H        -6.8040445659       -4.2423588283        2.6277886083
 H        -0.6389133107       -2.9611768806       -0.9608236292
 H        -1.1538311766       -2.4324225352        0.7031273320
 H         0.0763015951       -1.5646519286       -0.2585888787
 H        -1.0529031711        0.4604558441        0.2751120354
 H        -2.2069760722       -0.3364376917        1.2156404635
 H        -2.6325580024        0.7410405451       -0.2405439821
 H         3.4370267401        1.5095885552       -4.1712383279
 H         4.3323232208       -0.0547884427       -4.2327758566
 H         3.3406690431        0.3894127105       -2.8164367557
 H         1.0709522436       -0.2730662811       -6.2605703943
 H         2.7183644720        0.0788854710       -6.4908630637
 H         1.6350518869        1.2742500546       -5.9899948277
 H         2.1669601042       -7.1384182887       -2.1081537650
 H         0.9520238056       -7.9999233305       -3.1019517301
 H         0.3364832738       -6.8503609112       -1.9938454001
 H         2.3464471960       -7.2852030028       -5.3722787646
 H         3.2327475861       -7.0092332744       -3.9085585385
 H         3.1646693659       -5.7854400656       -5.1405423487
 H        -4.2157965561       -2.6646560822       -6.4370684951
 H        -4.8293511203       -4.2362300852       -5.8578649149
 H        -5.3105795984       -3.6677210147       -7.4255701598
 H        -3.2693381351       -5.9530635080       -9.0660257967
 H        -4.8726681908       -5.3849775816       -8.7380358647
 H        -4.0406917750       -6.5827511811       -7.6961276370
 H        -4.5200730269       -1.3201432592      -11.3896486124
 H        -4.5887083325       -3.1917636331      -11.5643186724
 H        -4.9011585487       -2.2126736482      -12.8918892645
 H        -2.7651594645       -4.0757113484      -13.1288506486
 H        -1.2481182804       -3.0796558633      -13.1742754646
 H        -2.5344139667       -2.7914045431      -14.3313957352
 H        -0.7180703598        2.3631380948      -18.7305232511
 H        -0.9887866001        0.7003313052      -18.6687735730
 H        -0.0918677809        1.5456862336      -17.3844104517
 H        -2.7937281699        3.8712365881      -16.2043100295
 H        -1.4886334190        3.8661737247      -17.4733498419
 H        -0.9740173299        3.5306032519      -15.9482462321
 H        -7.4139669134        5.1269029860      -20.1968559907
 H        -5.7283566558        4.9720867855      -20.7289332399
 H        -6.0508486296        4.7315071339      -19.0329781241
 H        -8.8921218387        3.0961425712      -19.7806200701
 H        -7.7327987401        3.0757330704      -18.5858488233
 H        -8.0649771201        1.6182834621      -19.4863027283
 H        -7.1664053029        3.4394586536      -26.6727521007
 H        -8.1655651363        1.9780772833      -26.5909160928
 H        -7.0877514422        2.1312485643      -27.8541628649
 H        -5.9859287104       -0.1082148240      -27.5135691724
 H        -7.2515797721       -0.2988173374      -26.4147186889
 H        -5.6296945495       -0.5509424177      -25.7951561179
 H         0.7451128501        5.2647320642      -26.1732403759
 H        -0.6650208521        4.8295479053      -27.0997092135
 H         0.6909919066        3.6547413582      -26.6326971576
 H        -0.1206250260        3.0888623822      -23.0185576127
 H         0.8389431230        4.4685469753      -23.5904551846
 H         0.9324024348        2.9335370624      -24.3668898928
 Na       -1.9684333923       -4.1526752146       -2.9638634354
 Na       -4.0383585910        3.6905807213      -23.0071394568
