232

 C        -0.9347628334        6.7619450602      -24.4832327827
 C        -1.4108558503        5.3326826572      -24.2198407677
 O        -2.1339368709        5.0734886965      -23.2573640897
 C        -0.7225191668        4.1131427109      -25.0814406859
 C        -1.8316019661        3.0843709558      -25.2724636595
 O        -2.3590262314        2.5444473796      -24.3050450477
 C        -2.4409755288        2.7693346289      -26.6716471541
 C        -3.5424441432        1.7706598756      -26.5899239253
 C        -4.8364301656        2.2594099451      -25.8837177795
 O        -4.8677561762        3.4172528097      -25.4340824715
 C        -6.2660079218        1.4919806928      -25.8519832678
 C        -6.7387442891        1.4868280441      -24.3655125603
 O        -6.0247095096        0.9581807245      -23.5406230429
 C        -8.0733769000        2.0920820437      -23.9448430211
 C        -8.1743386344        2.2558446453      -22.4305120551
 C        -7.1037965561        3.2240916196      -21.8129823052
 O        -6.3607974274        3.8235851957      -22.5678497138
 C        -6.7592656800        3.1833401228      -20.2908495019
 C        -5.4421578299        2.2496940181      -20.2322924483
 O        -4.5040770660        2.2065339303      -20.9851350383
 C        -5.5294630424        1.1367860492      -19.0713352127
 C        -4.1163516752        0.6635260709      -18.6589664929
 C        -3.4032006169        1.9978929115      -18.0745253493
 O        -3.7392468069        3.0557315090      -18.5713827269
 C        -2.1239728459        2.0683577581      -17.1753889797
 C        -2.3535323187        1.0762443137      -15.9149415213
 O        -2.8539184447        0.0065121669      -16.0747864884
 C        -1.8718881654        1.4313928302      -14.4994152041
 C        -1.4998873505        0.1113563003      -13.7128274380
 C        -2.8411768107       -0.4918495175      -13.1097571055
 O        -3.8413557546        0.2412689142      -13.0365000682
 C        -2.8895105727       -1.9251807416      -12.4467184019
 C        -1.9289778225       -1.8605330517      -11.1149771844
 O        -0.7358618990       -2.1681359915      -11.0818476359
 C        -2.4930046410       -1.3177999153       -9.7903304147
 C        -2.0281802137       -2.0742719804       -8.5911978576
 C        -2.5879202670       -3.5329432913       -8.6840039032
 O        -2.6220017218       -4.0160432184       -9.8379703566
 C        -3.3805861625       -4.4264687341       -7.5522487937
 C        -2.3132779698       -4.6878938610       -6.3835190244
 O        -2.5028505989       -4.5332136289       -5.1805979097
 C        -0.8944139504       -5.1717230022       -6.8880861378
 C         0.1906674485       -4.9659455723       -5.8643300624
 C         0.0957513140       -6.0442383491       -4.8479178698
 O        -0.8228899279       -6.8553489541       -4.9308729416
 C         1.3370552012       -6.1280290366       -3.8934649399
 C         1.4709486972       -4.5547076522       -3.3904929596
 O         0.4462409260       -4.1155749859       -2.9335604023
 C         2.8188747639       -3.9105778485       -3.1741705383
 C         2.6494557400       -2.3633301744       -3.0187192706
 C         2.2876702485       -1.7614544490       -4.4060361267
 O         2.0231606979       -2.3615331548       -5.4528143075
 C         2.0503348333       -0.2070508253       -4.4151774098
 C         0.8473103435        0.1148837034       -3.4193857379
 O         0.9874260445        0.1431336572       -2.1695929273
 C        -0.4854224467        0.4440759298       -4.0385247060
 C        -1.5981715725        0.4020096037       -2.9588702078
 C        -1.8308435270       -0.9606489828       -2.2958008438
 O        -1.9484840213       -1.9120490872       -3.0311798301
 C        -2.0087602929       -1.2002682286       -0.7792186232
 C        -3.4192555161       -2.0246571262       -0.6929780564
 O        -3.5421528850       -3.0938314518       -1.1946257695
 C        -4.5258436794       -1.3790981681        0.1301277814
 C        -5.1163645912       -2.4416868148        1.1077753661
 C        -4.0778740100       -3.1405801531        1.9306547769
 O        -2.9442113674       -2.7980067395        2.0864181344
 C        -4.4701461956       -4.5139712552        2.4990578977
 C        -4.6119079338       -5.5268567739        1.3880065579
 O        -5.5093687564       -5.3668404460        0.5672935942
 C        -3.6172949094       -6.7258910944        1.2432611117
 C        -3.9980072459       -7.3648217353       -0.1038355312
 C        -3.5723078349       -6.6029490739       -1.2652804528
 O        -2.6294117863       -5.8691395461       -1.1658564725
 C        -4.3676269307       -6.7763141360       -2.6055909337
 C        -5.0989726724       -5.4494499553       -2.9904601897
 O        -4.4297738167       -4.5133252649       -3.4481784902
 C        -6.5801659796       -5.1688079270       -2.4949551214
 C        -7.0046687580       -3.6949628589       -2.7897581445
 C        -8.3130047385       -3.2490801013       -2.0923821513
 O        -8.3935358258       -3.4536857769       -0.9116007146
 C        -9.5934600090       -2.8584125654       -3.0032379006
 C        -9.2024389937       -1.8959010879       -4.1989981667
 O        -8.1073448348       -1.3768394235       -4.1987836285
 C       -10.2229674344       -1.6685483219       -5.3798968449
 C       -10.0256520326       -4.2017463748       -3.4964904286
 C       -10.6965800038       -2.0895256739       -2.1962218001
 C        -3.3116429845       -7.1035378553       -3.6891398315
 C        -5.4549384777       -7.8784062463       -2.6369261302
 C        -3.5004913359       -4.9500943476        3.5802271374
 C        -5.8900828978       -4.3118105756        3.0680998995
 C        -0.8907835735       -2.3267430481       -0.2747336977
 C        -1.8472180968        0.1234680254        0.0518132375
 C         3.3706852162        0.3911230196       -3.8207117864
 C         1.9371210741        0.2966820158       -5.9708530657
 C         1.0987010663       -7.0789731231       -2.6897555932
 C         2.6164668093       -6.4810359016       -4.7099895112
 C        -4.4818990117       -3.6607377611       -6.8298422465
 C        -3.8784643609       -5.6708340998       -8.2000071959
 C        -4.2966818687       -2.2778781978      -12.1272067937
 C        -2.3801094252       -3.0656259365      -13.4590338383
 C        -1.0313818669        1.5942502067      -18.0912882046
 C        -1.9655011586        3.5723610809      -16.7096364687
 C        -6.3755872836        4.6455828063      -20.0358692776
 C        -7.9766305296        2.7102832419      -19.4988002726
 C        -7.1846860997        2.2424136132      -26.7981541524
 C        -6.2179623549        0.0414435968      -26.3812548679
 C        -0.0976510680        4.4475803372      -26.4183648000
 C         0.2912172006        3.5762798270      -24.0282899850
 H         0.0738203627        6.7748734317      -25.0388140515
 H        -0.9352506911        7.4031309042      -23.5864112346
 H        -1.6730004247        7.2719712899      -25.0925258995
 H        -1.6853630178        2.3853255149      -27.3325329478
 H        -2.7152012529        3.7168990174      -27.0834127512
 H        -3.0950215322        0.9136251433      -26.1096100402
 H        -3.9273516406        1.4275412407      -27.5312062235
 H        -8.7475745667        1.5248273562      -24.4401051059
 H        -8.1234371302        3.1561684040      -24.3708421092
 H        -8.0544588094        1.3010940098      -22.0124083427
 H        -9.1387890490        2.7004748535      -22.3349761663
 H        -6.2178030746        0.3017425422      -19.4548342395
 H        -5.9788154627        1.4949088089      -18.2041303275
 H        -3.4756565221        0.3185409840      -19.4888023350
 H        -3.9713074046        0.0595764552      -17.8248046461
 H        -2.6249857236        2.0327999484      -13.9644783489
 H        -0.9772412861        1.9850567562      -14.5445470155
 H        -0.8491214607        0.3203177634      -12.8737088856
 H        -1.0416028397       -0.6218059923      -14.3880467414
 H        -3.4921804367       -1.2495567262       -9.7795826708
 H        -2.0998430030       -0.2518287416       -9.7612846649
 H        -2.0920990007       -1.5335193531       -7.5971919838
 H        -0.9570464588       -2.0952095900       -8.8276602167
 H        -0.6772485896       -4.7766600172       -7.8979130909
 H        -1.0045045415       -6.2799622541       -7.0472264290
 H         0.0730115365       -3.9383603808       -5.3946853276
 H         1.1832651910       -5.0175483942       -6.3780439833
 H         3.4118792172       -4.2300864409       -3.9956508655
 H         3.2020710171       -4.3635951285       -2.2540736589
 H         3.5744939838       -2.0489063687       -2.6536843058
 H         1.9363831768       -2.2694119698       -2.3021365392
 H        -0.4628804515       -0.3747982154       -4.9107947133
 H        -0.4905388914        1.4798191392       -4.5332102535
 H        -2.5523953045        0.8540871152       -3.2383166696
 H        -1.2841119956        1.0898379194       -2.1815289533
 H        -5.4270417141       -1.0409170137       -0.3644876871
 H        -4.0993618735       -0.5218583913        0.5552923910
 H        -5.5615901984       -3.2569582701        0.5058540699
 H        -5.9415771116       -2.0732600404        1.6019872052
 H        -3.5531301652       -7.4167387258        2.1141202350
 H        -2.5359111305       -6.3197895011        1.1701107348
 H        -5.0761759058       -7.6515767059        0.0269881225
 H        -3.6691248188       -8.4228114107       -0.1673052778
 H        -6.4349115099       -5.3256968143       -1.4413963756
 H        -7.2690185193       -5.9109401049       -2.9542082875
 H        -7.0959967558       -3.5635406692       -3.9254410257
 H        -6.2339741743       -3.0225630990       -2.5083623633
 H       -10.7169628265       -0.7743578004       -5.3326569047
 H       -11.0144768790       -2.4563218240       -5.3450574301
 H        -9.6076899335       -1.5857955084       -6.2612887906
 H        -9.2193031421       -4.6097011645       -4.1518684868
 H       -10.8606056886       -4.1907744851       -4.0839845672
 H       -10.1414940960       -4.9974084279       -2.7166877886
 H       -10.8232918014       -2.4703425785       -1.1883635138
 H       -11.6710919324       -2.1178758142       -2.6316156716
 H       -10.4647430731       -0.9872834729       -2.1798973942
 H        -3.8127342664       -7.2065145870       -4.6352529206
 H        -2.7878828785       -8.0197370883       -3.4434753590
 H        -2.6136792639       -6.3626970264       -3.8538849376
 H        -5.8924670452       -7.8570073630       -3.6279442716
 H        -6.2715851370       -7.8369250800       -1.8837315372
 H        -5.1877892845       -8.8471637687       -2.3332666566
 H        -3.6064012739       -6.0087667376        3.8993507166
 H        -3.5177216155       -4.3617528297        4.4513220849
 H        -2.5923324730       -4.7428140542        3.1220860862
 H        -5.8586960825       -3.6023352336        3.8732179732
 H        -6.3448677493       -5.2754576602        3.2266195647
 H        -6.6248092607       -3.8522598144        2.3854836398
 H        -1.0954717263       -3.3457145624       -0.5463686556
 H        -0.7064384484       -2.2631476846        0.7769490263
 H         0.0802323432       -2.1405516889       -0.7783115933
 H        -0.8506790257        0.5419902912        0.0854034633
 H        -2.0400426264       -0.0633457873        1.0782647440
 H        -2.4853098050        0.8885496798       -0.2956122230
 H         3.5981081286        1.3509046938       -4.3421223265
 H         4.1716527370       -0.2963737340       -3.8859979941
 H         3.2048139010        0.5982310590       -2.7313107855
 H         1.0364853006       -0.0067999559       -6.4732589440
 H         2.7702316004       -0.0016810831       -6.5802083919
 H         1.8507933813        1.3503208287       -6.1245921943
 H         1.9768683136       -7.2124600909       -2.0927593643
 H         0.9057155999       -8.0653097862       -3.2112500397
 H         0.2180061010       -6.8739357882       -2.0600984688
 H         2.3760771515       -7.2198070700       -5.5146046138
 H         3.3764033110       -6.8141884334       -4.0484120725
 H         2.9954863041       -5.6515056491       -5.3218294877
 H        -4.0563494254       -2.9784144919       -6.1635033273
 H        -5.0783744957       -4.2945139571       -6.1996108655
 H        -5.2610279412       -3.2000970296       -7.4877900692
 H        -3.3976964917       -5.8104614591       -9.1115009132
 H        -4.9363318221       -5.7194724487       -8.3726022890
 H        -3.4381776289       -6.4872221668       -7.6327448730
 H        -4.6363751205       -1.3246697699      -11.6136082042
 H        -4.3695771386       -3.2121954479      -11.5555366326
 H        -4.7657647607       -2.5370887486      -12.9881936257
 H        -3.0683572841       -3.8819186755      -13.4964089134
 H        -1.3764413485       -3.3335396913      -13.1902621057
 H        -2.3544977914       -2.6255022830      -14.4663859355
 H        -0.8684551671        2.1338844981      -18.9589084768
 H        -1.2856314956        0.6354562335      -18.4608845372
 H        -0.0004975149        1.5045685134      -17.6279671197
 H        -2.9407756117        4.0150859180      -16.4200498148
 H        -1.3770881522        4.1711969701      -17.4055175052
 H        -1.2683094875        3.6720360838      -15.8885861948
 H        -7.2467482045        5.2458001784      -20.2320376464
 H        -5.5908448250        4.8119907289      -20.6920678107
 H        -6.0326807035        4.5743053127      -18.9965846323
 H        -8.9440298740        3.0616534522      -19.7634250482
 H        -7.9627923682        2.9859774213      -18.3894437949
 H        -8.0326062575        1.6077845104      -19.6088471008
 H        -7.2760886102        3.2826632390      -26.7123789446
 H        -8.1116818727        1.7526880432      -26.7816465151
 H        -6.8715273030        2.1095151441      -27.8412388595
 H        -5.9729477679       -0.1003955676      -27.4689626466
 H        -7.2620023107       -0.3183856650      -26.4038550934
 H        -5.5369464507       -0.5881585495      -25.7266275868
 H         0.8922226022        4.8389627012      -26.1288147354
 H        -0.6332589376        5.1639992502      -27.0494242704
 H         0.1655802206        3.5347529516      -26.9217986999
 H        -0.1396547956        2.8769781748      -23.2890301685
 H         0.8386079388        4.3145637009      -23.5044099607
 H         1.0012595194        2.9823623768      -24.5065947658
 Na       -1.8886352791       -4.2747747933       -2.9975701803
 Na       -4.0033670373        3.5852897944      -22.9341663288
