232

 C        -0.9006027029        6.4271937654      -24.1330794311
 C        -1.4937935455        5.0535279207      -24.1228344267
 O        -2.5015287484        4.8696288521      -23.4682279499
 C        -1.0233474628        3.9680952558      -25.2184376704
 C        -2.0779666050        2.8618727697      -25.3650517787
 O        -2.3671750143        2.1447046996      -24.4080882089
 C        -2.7096383950        2.6513767614      -26.8183263809
 C        -3.8883526457        1.7554143386      -26.9080645297
 C        -4.9600303229        2.3001519031      -25.9690245102
 O        -4.7083699234        3.3900838307      -25.3884906670
 C        -6.2300734667        1.5115888165      -25.6689833982
 C        -6.7247204283        1.6200804143      -24.1361646589
 O        -5.9431756136        1.3903749565      -23.2313026228
 C        -8.1128075541        1.9789500651      -23.7717084952
 C        -8.2411045790        2.3612870483      -22.2929007132
 C        -7.1089959126        3.2104203883      -21.8480172163
 O        -6.5513608196        4.0691897092      -22.5455565305
 C        -6.6806180366        3.1530659831      -20.3242167464
 C        -5.4733205492        2.1035389488      -20.2144078843
 O        -4.5811159605        2.1197700099      -21.0387364096
 C        -5.5459687262        1.0281908906      -19.0513539286
 C        -4.0540843530        0.9057864977      -18.4968454782
 C        -3.5485578688        2.1908747711      -17.9740406442
 O        -3.9702409686        3.2902801363      -18.1961522305
 C        -2.1724117924        2.1440263214      -17.1726572071
 C        -2.3015887730        1.1352940590      -16.0121052471
 O        -2.9355129983        0.1123192953      -16.1549873273
 C        -1.6930116328        1.5357976770      -14.6291891357
 C        -1.5844451835        0.4135672546      -13.6556675477
 C        -2.7954604249       -0.1687422792      -13.0922936214
 O        -3.7157640146        0.5659111788      -12.8073637984
 C        -2.7418037747       -1.6033626365      -12.6285256850
 C        -2.0937105318       -1.3595741712      -11.1523823393
 O        -0.8713997652       -1.3435718056      -11.1059964031
 C        -2.9229271100       -1.0874944130       -9.8955062318
 C        -2.5261351705       -1.9737554384       -8.8344858047
 C        -2.8192076375       -3.4806827151       -8.9513650343
 O        -2.5780788122       -4.1823622384       -9.9740413814
 C        -3.2110080444       -4.2467495539       -7.6191842510
 C        -1.9469314513       -4.3578607889       -6.6066256590
 O        -2.0683602606       -3.9048930295       -5.5137314462
 C        -0.6603918020       -4.8687185397       -7.2726641437
 C         0.5601810549       -5.1128477283       -6.4320324553
 C         0.3577180637       -6.0649816736       -5.2725615220
 O        -0.6863820639       -6.7036820166       -5.2540360330
 C         1.4487472783       -6.0731768621       -3.9887753197
 C         1.5462105258       -4.5952555281       -3.3082228632
 O         0.5135065711       -4.1225796945       -2.8863720892
 C         2.9532707215       -3.9155657832       -3.3093852197
 C         2.8843402566       -2.4142283089       -3.0491531164
 C         2.1270917325       -1.7114377520       -4.1773341222
 O         1.6056839845       -2.2231301631       -5.1670272285
 C         2.1489171906       -0.0194237745       -4.1310206464
 C         0.8693592882        0.2917861395       -3.2227430139
 O         0.9486029743        0.0959685540       -2.0109804998
 C        -0.5036960072        0.4521274433       -3.8989579510
 C        -1.6837359855        0.3766330935       -2.9012117486
 C        -1.6745189152       -1.0912455569       -2.3669591728
 O        -1.5652507322       -2.0270873798       -3.1344404916
 C        -1.8047511051       -1.4133819942       -0.8102683489
 C        -3.3068274676       -2.0863677109       -0.6107503396
 O        -3.6303209465       -3.0888991985       -1.1776759927
 C        -4.2717902283       -1.4311138693        0.4029366552
 C        -5.0902307155       -2.4623953372        1.2174702416
 C        -4.0994983511       -3.2885829455        2.0233028151
 O        -2.9525298822       -2.8637346838        2.0293607076
 C        -4.6001001545       -4.6151823024        2.7180635422
 C        -4.7311174145       -5.5915191633        1.4409002404
 O        -5.7134768182       -5.5286832783        0.7640368655
 C        -3.6577615076       -6.5781766936        1.2088002678
 C        -3.9143628092       -7.4337699000       -0.0452709344
 C        -3.4848479941       -6.8434902399       -1.4054913701
 O        -2.5314088563       -6.1322327320       -1.5802764324
 C        -4.4774531707       -6.9775854257       -2.6169528514
 C        -5.0206544313       -5.5120995187       -2.8022270986
 O        -4.4081756202       -4.6296716329       -3.4375791047
 C        -6.4035401310       -5.1791969035       -2.1903664233
 C        -6.9767044290       -3.9539176664       -2.8977333551
 C        -8.2727075285       -3.5535789714       -2.2212287190
 O        -8.4375162091       -3.7018840576       -1.0346328651
 C        -9.5932943543       -3.0671168224       -3.1340595172
 C        -9.0069046266       -2.0041836866       -4.0842641131
 O        -7.8602336691       -1.6577336006       -3.9555756005
 C        -9.8858295357       -1.4931845824       -5.2448600858
 C       -10.1330351553       -4.2308411074       -3.9688100475
 C       -10.6644440513       -2.4052002726       -2.2172054450
 C        -3.7841225135       -7.2817874567       -3.9380500100
 C        -5.6526332462       -7.9366043603       -2.4140392258
 C        -3.3427187541       -4.9437072161        3.5046086987
 C        -5.9169074232       -4.4429299340        3.3886345273
 C        -0.8102262427       -2.6030495611       -0.5054213622
 C        -1.6461177668       -0.1291916405        0.0510678123
 C         3.3887748175        0.6861784745       -3.5276955362
 C         1.8856002887        0.5042866882       -5.5070366578
 C         0.8908175961       -6.9468210997       -2.8098760345
 C         2.7646530381       -6.6141778809       -4.5771534732
 C        -4.3785399157       -3.5450915367       -6.8396074698
 C        -3.8267080003       -5.7042345134       -8.0677098608
 C        -4.1891887933       -2.1995875704      -12.5038956105
 C        -1.9401332081       -2.7038934840      -13.3761206189
 C        -0.9332272116        1.5607173852      -18.0093922639
 C        -1.8075305947        3.5028040106      -16.6063749521
 C        -6.1215535581        4.5754841259      -19.9626556084
 C        -7.9439721178        2.7831854129      -19.3492335383
 C        -7.3442985002        1.9591065737      -26.6621544937
 C        -6.1358609343        0.0158609587      -25.9030706035
 C        -0.6912909124        4.5206242645      -26.6421063847
 C         0.2651575298        3.2680424821      -24.6595668544
 H         0.1931949823        6.4457339058      -24.0223026803
 H        -1.4414722730        7.1979534710      -23.6213564023
 H        -0.9874430160        6.7407572062      -25.1777347609
 H        -1.8817339663        2.1910842685      -27.4648462817
 H        -2.9260746105        3.5051466583      -27.4127054760
 H        -3.6512927770        0.7716471763      -26.4660729082
 H        -4.1495598166        1.5332849604      -27.9184775638
 H        -8.7873190248        1.1740296791      -23.9841294572
 H        -8.3862978780        2.7721938790      -24.4959805763
 H        -8.3286170185        1.4215033572      -21.7125444100
 H        -9.2235671459        2.8363647908      -22.3127783290
 H        -5.6974926260       -0.0356792378      -19.4261378493
 H        -6.2660281601        1.2024449136      -18.3273037867
 H        -3.3043979865        0.7559948309      -19.2648662988
 H        -3.9356517952        0.1353785367      -17.8033759558
 H        -2.2608966782        2.3924729448      -14.1795449103
 H        -0.6597218487        1.8104386700      -14.8265430026
 H        -1.0229043489        0.7172615146      -12.8061392244
 H        -0.9680339400       -0.3872715111      -14.0345037604
 H        -3.9471364387       -1.2257179091      -10.1139212516
 H        -2.7681542521       -0.0873498803       -9.4922473372
 H        -2.7793622817       -1.5266416714       -7.9125584497
 H        -1.4132370216       -2.0907324646       -8.9365547239
 H        -0.4020347050       -4.1474328484       -8.0751933179
 H        -0.9348533587       -5.8364412578       -7.7843069916
 H         0.9383000447       -4.1723170194       -6.0484664937
 H         1.3382180068       -5.4773311937       -7.0997332867
 H         3.4747858910       -4.0501164109       -4.2320297689
 H         3.5702466605       -4.4670562979       -2.5813399858
 H         3.9153713062       -2.1165670368       -3.0202834224
 H         2.3729435474       -2.1761562169       -2.1793594272
 H        -0.5074962683       -0.4799354392       -4.5713055990
 H        -0.3870148303        1.4281617878       -4.4473243751
 H        -2.6865786493        0.6756267618       -3.3053321218
 H        -1.5049603648        0.8849011671       -1.9274851080
 H        -4.8071865726       -0.7744970146       -0.2876272789
 H        -3.7319027646       -0.8558099556        1.0697384982
 H        -5.6261766148       -3.2219229688        0.6565211905
 H        -5.8116224404       -2.0822324350        1.8582743690
 H        -3.4754548515       -7.1120333549        2.1749621568
 H        -2.6230701767       -6.0880381033        1.1188683979
 H        -4.9548687385       -7.8468392197       -0.0325417524
 H        -3.3697824852       -8.3589654497        0.1413897432
 H        -6.1727804003       -4.9242983531       -1.1962931169
 H        -7.0113690388       -6.0588530032       -2.1530537890
 H        -7.2083490641       -4.1322487621       -3.9600274355
 H        -6.2962513214       -3.2030060324       -2.7638916856
 H        -9.6962759731       -0.4495278354       -5.5194957837
 H       -10.9334640457       -1.6470373600       -5.0308800359
 H        -9.5662596984       -2.1534448311       -6.1336652161
 H        -9.3620371031       -4.6960062624       -4.6141181403
 H       -10.8906505668       -3.9939589242       -4.6730659346
 H       -10.4883831119       -5.0316276508       -3.3234396305
 H       -11.1940372604       -3.0593813454       -1.6068579102
 H       -11.3374977451       -1.8074638099       -2.7500366635
 H       -10.1760812238       -1.7432324474       -1.5465704158
 H        -4.5014687329       -7.2549746395       -4.7469874823
 H        -3.3664359689       -8.2484384468       -3.9101656982
 H        -2.8997108155       -6.6874233840       -4.0870523394
 H        -6.3295857702       -7.9352737344       -3.2552865599
 H        -6.1905461627       -7.6844310882       -1.4509403806
 H        -5.4521322558       -8.9959213584       -2.3730086559
 H        -3.4939220179       -5.7658594839        4.1862862140
 H        -3.1551065782       -4.1018704126        4.0917185769
 H        -2.4954768822       -5.0499301444        2.8913057592
 H        -5.9845653589       -3.5195925696        3.9416067754
 H        -6.0782989833       -5.2022851491        4.1496566425
 H        -6.7333032567       -4.5176165673        2.6601279550
 H        -1.1714756954       -3.3918010162        0.1584807082
 H         0.1858675239       -2.2422418399       -0.2534454820
 H        -0.5845179137       -3.2228595673       -1.4435375172
 H        -0.5911337160        0.2583095661       -0.0916364556
 H        -1.8636927048       -0.2901249725        1.1002971687
 H        -2.3953883564        0.6623491325       -0.1853042215
 H         3.0172018504        1.6378195884       -3.1429917655
 H         4.1135187569        0.8656174898       -4.2680462868
 H         3.9416547876        0.1781684387       -2.7175335973
 H         1.2419114971       -0.1236866936       -6.0879130615
 H         2.7756935405        0.6392156475       -6.0807190090
 H         1.3520913193        1.4034479733       -5.6034412788
 H         1.5558186295       -7.0024151414       -1.9809739320
 H         0.7479162884       -8.0096919678       -3.0896990016
 H         0.0532024405       -6.3786751913       -2.3993880330
 H         2.7931559089       -7.5246896403       -5.1718600015
 H         3.4255966994       -6.7415028221       -3.7620487973
 H         3.1629058136       -5.8705324167       -5.2219069060
 H        -4.0309782485       -2.8631586119       -6.1249038479
 H        -4.9779081827       -4.2043258205       -6.2237184056
 H        -5.1974448106       -3.1620500959       -7.5366426602
 H        -3.4485197762       -6.1100462173       -8.9557635133
 H        -4.8995961693       -5.4852090015       -8.2163292319
 H        -3.6208469556       -6.4756517111       -7.3196639081
 H        -5.0156528426       -1.4924543569      -12.2141603138
 H        -4.0963883418       -3.0710764375      -11.8606958019
 H        -4.3731149739       -2.5222800161      -13.5237290387
 H        -1.6901917672       -3.4464243617      -12.6634229829
 H        -1.0737376012       -2.3633656496      -13.9548942075
 H        -2.6184878506       -3.2449850715      -14.0639487544
 H        -0.5471166058        2.1831047476      -18.8141470061
 H        -1.1625484706        0.5996079788      -18.4386241997
 H        -0.0583455741        1.2780997194      -17.3192160672
 H        -2.5672803023        3.7671387494      -15.8687368027
 H        -1.8621788694        4.4058054889      -17.3195930583
 H        -0.7573931695        3.4944069454      -16.1915389307
 H        -7.0010978372        5.1102232352      -20.1448496560
 H        -5.3801118800        4.8635674818      -20.6631803748
 H        -5.9479605596        4.5613213403      -18.8834962978
 H        -8.7426466298        3.3901444561      -19.6175709075
 H        -7.8295630520        2.9760436936      -18.2604265871
 H        -8.4297276100        1.8090057587      -19.3367104459
 H        -7.3878968208        3.0219431777      -26.7300710853
 H        -8.2544734934        1.4792582516      -26.4078317026
 H        -7.0978325059        1.8053689047      -27.7424524675
 H        -5.8564432594       -0.3079555975      -26.8666743256
 H        -7.0586487814       -0.4510809069      -25.6568936170
 H        -5.3559155712       -0.3918915026      -25.2437978339
 H         0.0353329098        5.3315718879      -26.4801428242
 H        -1.5688593392        4.9329658421      -27.1632487659
 H        -0.3807019057        3.7275798965      -27.2465185431
 H         0.0132275872        2.9539459342      -23.6876458652
 H         1.2185850234        3.7817166328      -24.5733106778
 H         0.5322257180        2.3240031448      -25.1609058783
 Na       -2.0946433122       -4.1271740958       -2.9666373184
 Na       -4.2314645385        3.2185270728      -22.9799544398
