232

 C        -0.8564918193        6.3486578481      -23.9887916147
 C        -1.6876935005        4.9857129985      -24.2771739827
 O        -2.5350774927        4.7853210618      -23.4777251488
 C        -1.0666626135        3.8734619423      -25.2375817998
 C        -2.1156570860        2.6661421844      -25.4742360599
 O        -2.4835998884        1.9977812829      -24.5382410332
 C        -2.7529274344        2.6014675314      -26.8538260197
 C        -3.9470100616        1.6402799643      -26.8957761020
 C        -4.9988450420        2.1930280005      -25.9121352417
 O        -4.8683455760        3.3365030485      -25.5511383027
 C        -6.3211904005        1.3986634562      -25.5875513501
 C        -6.6963774871        1.6947913492      -24.1043145879
 O        -5.8858143076        1.4106018740      -23.2725964954
 C        -8.1710426785        2.0615653005      -23.8099423947
 C        -8.2767555629        2.4125807699      -22.3113252085
 C        -7.0958644752        3.2616953400      -21.8227729648
 O        -6.5764818314        4.0568635968      -22.5611129034
 C        -6.6792012362        3.2055200897      -20.3338091600
 C        -5.5139351567        2.1515791093      -20.1489093981
 O        -4.6150810535        2.1328445042      -20.9984435973
 C        -5.4429868110        1.2174050995      -19.0270158321
 C        -3.9825733334        0.8724090919      -18.6049572018
 C        -3.4521861326        2.2253966379      -17.9589760768
 O        -4.0947745986        3.2426485481      -17.9880261711
 C        -2.1267341259        2.1097011098      -17.1181486934
 C        -2.2992834427        1.1568213793      -15.8888968505
 O        -2.9001170345        0.0731776246      -15.9841104961
 C        -1.6528255969        1.6678699689      -14.6045187387
 C        -1.3428994868        0.5130574247      -13.6723280779
 C        -2.7497313336       -0.0740428454      -13.1325826472
 O        -3.7020717239        0.5790294043      -12.8871284592
 C        -2.7376249563       -1.6712586137      -12.6286035650
 C        -2.1208434058       -1.3946280711      -11.2340694470
 O        -0.9504304732       -1.0937321939      -11.1179887265
 C        -3.0249569038       -1.1278759166       -9.9574072012
 C        -2.4275621912       -1.9859656472       -8.6786273728
 C        -2.7767839652       -3.4543216069       -8.8332529437
 O        -2.7585842349       -3.9901652822       -9.8901024229
 C        -3.2526561646       -4.2591931898       -7.5948622940
 C        -1.9525075720       -4.3027286185       -6.7305860258
 O        -1.9224064537       -3.8000987781       -5.6389608384
 C        -0.6389826386       -4.8878433665       -7.3864240380
 C         0.6530816873       -5.0189913170       -6.4321044644
 C         0.3577192242       -5.8952577831       -5.1891630685
 O        -0.5105906786       -6.7187925965       -5.1624222098
 C         1.4324987073       -6.0183159755       -4.0604127992
 C         1.5180581915       -4.6366563593       -3.4224828747
 O         0.4996016357       -4.0913740125       -2.9805626769
 C         2.8357149970       -3.9871682272       -3.3639342847
 C         2.8692366679       -2.4251242509       -3.0585856486
 C         2.2217540564       -1.5314427367       -4.1914546161
 O         1.5688732077       -2.0897576194       -5.0224126136
 C         2.0869007858        0.0335758133       -4.1735495326
 C         0.8156988295        0.1746339632       -3.1675259055
 O         0.9442612274        0.1177265400       -2.0132205203
 C        -0.5909312581        0.5068105727       -3.8699092133
 C        -1.6522516146        0.3717831296       -2.7812200986
 C        -1.6922949727       -1.0991277719       -2.2679130361
 O        -1.4893915505       -1.8608113811       -3.2144005506
 C        -1.8324629557       -1.4675050949       -0.7867621363
 C        -3.2355929407       -2.1046256473       -0.5692253156
 O        -3.4616077164       -3.1352340907       -1.2238127814
 C        -4.3312023884       -1.4792835850        0.4305089658
 C        -5.1056350083       -2.5193219451        1.1037956908
 C        -4.1104789516       -3.2585773740        1.9924507801
 O        -2.9081940002       -2.9537495592        2.0376705521
 C        -4.5224261134       -4.5349806402        2.6792585803
 C        -4.7110937046       -5.6504536271        1.4830654663
 O        -5.7466456863       -5.6663011611        0.8637250891
 C        -3.5418986904       -6.5881497416        1.1834675777
 C        -3.8701836329       -7.3992984363       -0.0337846843
 C        -3.5396620360       -6.7935030064       -1.4298348670
 O        -2.3654321382       -6.3027243054       -1.6152950948
 C        -4.5637921132       -7.0094421875       -2.5533971013
 C        -5.0556335408       -5.5038961702       -2.8226766468
 O        -4.3742020650       -4.7480777625       -3.4154133843
 C        -6.4717418372       -5.1239241001       -2.2666687281
 C        -7.1701366118       -4.0097651473       -2.9787336999
 C        -8.4472683680       -3.6613732581       -2.2453828490
 O        -8.5875181721       -3.6757414439       -1.0419476696
 C        -9.5339026869       -3.0371001869       -3.1342025940
 C        -8.9410697421       -1.9338771876       -4.0989901968
 O        -7.7973416813       -1.4967196459       -3.9951273282
 C        -9.8753241182       -1.4494105433       -5.2383385700
 C       -10.0335349204       -4.2489442588       -3.9720897641
 C       -10.6350619396       -2.4846583104       -2.2202496491
 C        -3.7399025227       -7.4191685346       -3.8576082998
 C        -5.5689148201       -8.1355932094       -2.3233307594
 C        -3.3408495465       -5.0511714200        3.6094246746
 C        -5.8490756580       -4.4248385282        3.3984105810
 C        -0.9212711591       -2.5784591645       -0.3841871588
 C        -1.5016224858       -0.2320953179        0.0264222802
 C         3.3016490594        0.6072274323       -3.3812386845
 C         1.9966485873        0.5812835524       -5.5706992499
 C         0.7406982709       -6.9770357246       -2.9897685873
 C         2.6981575732       -6.6998160345       -4.5796839494
 C        -4.3284787679       -3.6298922380       -6.7037990277
 C        -3.6329328568       -5.6787927338       -8.0797436638
 C        -4.2593735546       -2.1721527095      -12.5446095287
 C        -1.8207703898       -2.5551523683      -13.4040050931
 C        -1.0583239022        1.5601323907      -18.1871012908
 C        -1.8276119190        3.5153619999      -16.5922759777
 C        -6.0774800477        4.5400064505      -19.9670848582
 C        -7.7344418393        2.7695562397      -19.3428130959
 C        -7.3885392748        2.0287063124      -26.5932388800
 C        -6.0715811850       -0.0865515429      -25.7625425498
 C        -0.6974057577        4.6033869870      -26.6205495145
 C         0.2862985495        3.4039466010      -24.6828595309
 H         0.1827137493        6.1477765528      -23.8909951964
 H        -1.3531309819        6.8975972310      -23.1562869844
 H        -0.8478462616        7.1503028340      -24.7955407746
 H        -2.1064468348        2.5429780179      -27.6969494011
 H        -3.1730089001        3.5279370591      -27.0828900213
 H        -3.7855914583        0.5672028251      -26.7617565077
 H        -4.3771842103        1.7050716255      -27.8520067690
 H        -8.8245149662        1.1307817295      -24.2077793271
 H        -8.4615757259        2.8253968646      -24.4434695206
 H        -8.3703525421        1.5002648424      -21.7374625031
 H        -9.2176971152        2.8776758642      -22.2231929980
 H        -5.8040348868        0.2292407625      -19.2856446008
 H        -6.0720385612        1.5735095694      -18.1914189313
 H        -3.3368323735        0.6341406001      -19.3873262984
 H        -4.0636770034       -0.0039405629      -17.9097588630
 H        -2.4806131006        2.1222762146      -14.1299147222
 H        -0.8005269772        2.3538215486      -14.7833382883
 H        -0.7637968487        0.7877104298      -12.7697257232
 H        -0.7015390868       -0.2743016192      -14.0287341002
 H        -4.1748603538       -1.5098335583      -10.0564115594
 H        -3.0429819767       -0.1067279278       -9.7009915747
 H        -2.9410326002       -1.5888099811       -7.8427079738
 H        -1.2576361894       -1.9902267490       -8.4672439722
 H        -0.3729457867       -4.2479753709       -8.2509801760
 H        -0.9375799801       -5.8869326758       -7.7737216269
 H         1.0076022019       -3.9861210191       -6.1902437957
 H         1.5557468375       -5.5062129238       -6.9848776054
 H         3.4162410560       -4.1577881873       -4.2272189480
 H         3.3257533144       -4.6112271999       -2.6102393160
 H         3.8881361192       -2.2727947666       -2.8604453772
 H         2.2941685709       -2.2148819215       -2.2047091684
 H        -0.7810243091       -0.2013061957       -4.7230683488
 H        -0.5056696028        1.6575874749       -4.1236095924
 H        -2.5692161928        0.4531596266       -3.3004563013
 H        -1.6511950590        1.0830268986       -1.9519222919
 H        -4.8793083285       -0.8796757420       -0.2817431047
 H        -3.8525902437       -0.9001724139        1.1903695679
 H        -5.5969341293       -3.2371705576        0.5489121489
 H        -5.8677077312       -2.1155096534        1.7985584959
 H        -3.3221180889       -7.1958939555        2.1137957056
 H        -2.5939064559       -6.0113186989        1.1577385886
 H        -5.0122052259       -7.3892359790        0.0518006473
 H        -3.6939147687       -8.4981930387        0.0838595654
 H        -6.3454443740       -4.9226725728       -1.1831822760
 H        -7.0067324575       -6.0521095853       -2.2742522562
 H        -7.4638522743       -4.3012165996       -3.9818768345
 H        -6.5747611579       -3.0386474217       -2.9429677975
 H        -9.4418963300       -0.4862338853       -5.5780546591
 H       -10.8425850671       -1.2896991892       -4.8830310243
 H        -9.9048263675       -2.1578678944       -6.0345772865
 H        -9.3514945809       -4.5579283982       -4.7434583268
 H       -10.9689958789       -3.9918797461       -4.5960775238
 H       -10.2566133262       -5.0787289408       -3.3924032409
 H       -11.0340055313       -3.2897918510       -1.6262877915
 H       -11.4652068339       -2.0289385469       -2.7632054156
 H       -10.2989825530       -1.8288645891       -1.4916448963
 H        -4.3194062880       -7.2277701578       -4.7201850539
 H        -3.4379286954       -8.4054601422       -3.9291050679
 H        -2.7818236994       -6.9060796575       -3.8001883416
 H        -6.3303951234       -8.2556716506       -3.0994601196
 H        -6.0498114069       -8.0949542210       -1.3229151363
 H        -5.1103968448       -9.1339769568       -2.4655529946
 H        -3.6704649202       -5.9474456351        3.9651655486
 H        -3.2392797653       -4.3783402552        4.4334578979
 H        -2.3685556302       -5.1404738721        3.1306905947
 H        -5.8134970508       -3.7790779375        4.2844257782
 H        -6.0893362143       -5.3613945905        3.9002001976
 H        -6.6513194048       -4.1749940810        2.7176857343
 H        -1.0484204059       -2.9533604276        0.6228341632
 H         0.0963975880       -2.2420191251       -0.6329146582
 H        -1.0202869909       -3.4635549556       -0.9604033537
 H        -0.6607740635        0.2337802227       -0.4211912609
 H        -1.3168104789       -0.4919436060        1.0356838278
 H        -2.3325212765        0.4501536472        0.1086031661
 H         3.0891996194        1.5624681387       -2.9663668041
 H         4.2001340527        0.6894814737       -4.0517532245
 H         3.6639716054       -0.0290247941       -2.5684585913
 H         1.3969347007        0.0290785793       -6.2503245191
 H         2.9564358123        0.6388897849       -6.0219712188
 H         1.5542982716        1.5393663045       -5.6815245753
 H         1.4000711136       -7.0335500615       -2.1322398655
 H         0.6094278657       -7.9820192931       -3.2930678684
 H        -0.0639000191       -6.3945811385       -2.5819433022
 H         2.5001434778       -7.5738670770       -5.2279293193
 H         3.3794375541       -7.0878960915       -3.7847518001
 H         3.2283416167       -6.0162986780       -5.2083449545
 H        -4.0472530761       -2.6006384156       -6.4999292395
 H        -4.4471836310       -4.0208689211       -5.7066233554
 H        -5.3105733705       -3.6877866338       -7.1240016232
 H        -2.8376002158       -6.1498174435       -8.6198258841
 H        -4.4701092220       -5.5603498242       -8.7544523573
 H        -3.8468986500       -6.3168804296       -7.2458709936
 H        -4.8580429033       -1.3342848428      -12.2401368149
 H        -4.3629205681       -3.0302130034      -11.8791157110
 H        -4.5822558980       -2.2993893093      -13.6715155724
 H        -1.1463943130       -3.1666751864      -12.8352657204
 H        -1.2891472055       -1.9470580372      -14.1420758787
 H        -2.4130470150       -3.2014156198      -14.0250761570
 H        -0.7280099808        2.4519397200      -18.7990179094
 H        -1.5684394046        0.9243667666      -18.9091254058
 H        -0.2445739839        0.9778250225      -17.9174465628
 H        -2.6435657593        3.8376271506      -15.9554779728
 H        -1.8778779916        4.2855250673      -17.4063303821
 H        -0.8118013978        3.6496274381      -16.1242201748
 H        -6.8653374556        5.2133439257      -20.0962484269
 H        -5.3065559014        4.6880008982      -20.7499018683
 H        -5.8326235674        4.4792122895      -18.9427585931
 H        -8.7550785335        3.0997652514      -19.6027956737
 H        -7.5740285333        3.0935538729      -18.3454912116
 H        -7.9373023309        1.6979731156      -19.1679727211
 H        -7.2266525966        3.0953817682      -26.5211126596
 H        -8.3957368841        1.7690188442      -26.4127111350
 H        -7.1556594855        1.8983723836      -27.6094519686
 H        -5.7951524496       -0.3777069451      -26.7925088752
 H        -7.0295603896       -0.6204028042      -25.4858372408
 H        -5.2760055483       -0.5131171072      -25.1353623017
 H         0.1684026145        5.2070577875      -26.3897653068
 H        -1.5005095249        5.2906805786      -26.9098824784
 H        -0.6581987761        3.9351494287      -27.4425999977
 H         0.1711569214        2.9630340055      -23.7558289950
 H         1.0545700850        4.1136065852      -24.5513653895
 H         0.7501128871        2.6261704351      -25.2984308712
 Na       -2.1288610765       -4.1520239326       -3.0737564264
 Na       -4.3088000042        3.2163607583      -23.0734474420
