232

 C        -0.8124228522        5.7793968163      -23.8605623876
 C        -1.8609551707        4.7516538608      -24.1586886038
 O        -2.7585753638        4.4687626404      -23.3756457880
 C        -1.5819721367        3.7314373984      -25.3285019988
 C        -2.7802167086        2.7109193559      -25.5295509726
 O        -2.9374040771        1.8280589339      -24.6818053149
 C        -3.3037797499        2.4907884727      -26.9367503850
 C        -4.4710131692        1.5105440243      -26.9968668080
 C        -5.6343792562        2.0481385435      -26.0615229978
 O        -5.6803797040        3.2243535276      -25.6974249882
 C        -6.7434572275        0.9176419683      -25.7213289796
 C        -6.9602293118        1.2516615342      -24.1852679584
 O        -6.1985487131        0.8131007056      -23.3530322557
 C        -7.9841272511        2.3696001010      -23.9418663788
 C        -8.0374157695        2.6077641826      -22.3957220215
 C        -6.9025089642        3.4756734292      -21.8891130731
 O        -6.2802817880        4.2217964373      -22.6545664673
 C        -6.5467507912        3.4847949852      -20.4189561451
 C        -5.3240288064        2.5039854251      -20.0940949353
 O        -4.4159880036        2.4445288185      -20.8931355816
 C        -5.3040610108        1.5998390496      -18.9677660411
 C        -3.9219601645        1.1428583796      -18.5430565540
 C        -3.4065908500        2.2126194416      -17.5737617946
 O        -4.1953450835        2.9145836011      -16.9684733534
 C        -1.9341546242        2.3206746135      -17.1877715114
 C        -1.7412264112        1.4648276987      -15.8736508162
 O        -1.7169196210        0.2295596925      -15.9915165369
 C        -1.4786648165        2.1924850728      -14.5639277328
 C        -1.3164809545        1.2998464691      -13.3041111021
 C        -2.6082922533        0.4449349787      -12.9775285038
 O        -3.6545580278        0.8125964205      -13.4010887216
 C        -2.5291641082       -1.1182418529      -12.4463822438
 C        -2.2516142295       -1.1116132905      -10.8810355065
 O        -1.1042466045       -1.0524683638      -10.5147468246
 C        -3.3379293010       -1.0146968293       -9.7590852392
 C        -2.9903063926       -1.7393551221       -8.4195503766
 C        -3.0867840094       -3.2061077948       -8.6443956123
 O        -3.4041522046       -3.6366032731       -9.7045216536
 C        -2.9551784721       -4.2086691492       -7.4313697436
 C        -1.5935947070       -4.0332538575       -6.5988601127
 O        -1.5925212619       -3.8124270733       -5.4267425200
 C        -0.3103302686       -4.2295615538       -7.4144585748
 C         0.7431053419       -5.2089812038       -6.8236535119
 C         0.2301462463       -5.9572512433       -5.6142580542
 O        -0.8621317324       -6.4342469281       -5.6541952301
 C         1.1876385452       -6.0923341831       -4.2735610826
 C         1.2170441713       -4.6515365416       -3.6120711301
 O         0.2297221601       -4.0459417620       -3.1438437847
 C         2.6154776160       -3.9547647106       -3.6499179441
 C         2.5622300369       -2.4860842169       -3.1931487438
 C         2.3642183142       -1.3655515218       -4.2041486309
 O         2.0479612751       -1.6253076147       -5.3249293778
 C         2.3542043375        0.1765254519       -3.7064498347
 C         1.0071019881        0.2993257127       -2.8107664590
 O         1.0337333489        0.1565287618       -1.6652959531
 C        -0.4199308435        0.7926516958       -3.3952630876
 C        -1.5916652557        0.4037635473       -2.4900037746
 C        -1.8271433211       -1.0774394113       -2.2054121256
 O        -1.9609382758       -1.8247589976       -3.1890775797
 C        -1.8318703883       -1.6046870886       -0.7322399965
 C        -3.0937887259       -2.4258096071       -0.5576505046
 O        -3.0834699676       -3.5804318492       -0.9661914693
 C        -4.3512396993       -1.9242009821        0.1753554393
 C        -4.9835520567       -3.0052053712        0.9472677786
 C        -3.9369624875       -3.5695392755        1.9144285493
 O        -2.7686504509       -3.1498782907        1.8423458624
 C        -4.3602401062       -4.8380145599        2.8527752636
 C        -4.3445993082       -6.0560024989        1.7467916824
 O        -5.4365273083       -6.3711676527        1.3167510760
 C        -3.0171892640       -6.5520125137        1.2326774709
 C        -3.1944520378       -7.5352136008       -0.0112065444
 C        -3.2690926240       -6.7054775793       -1.3580985425
 O        -2.3549484715       -5.9807156463       -1.6445043250
 C        -4.3938248861       -7.1601524766       -2.5162508083
 C        -5.0868079285       -5.7719562254       -3.0676423627
 O        -4.3674997756       -4.8644782975       -3.5283176829
 C        -6.6037148824       -5.6756396864       -2.9322799588
 C        -7.2172933937       -4.4252094344       -3.4582939109
 C        -8.3455424365       -3.8943376219       -2.5641324668
 O        -8.2996804201       -4.0401904799       -1.3515886884
 C        -9.4928107392       -3.1401815936       -3.3797577948
 C        -8.9156235360       -1.8531525405       -4.0119492377
 O        -7.7506133523       -1.5383769545       -3.8320911602
 C        -9.8090324243       -0.9127800630       -4.8929499188
 C       -10.0113929829       -3.9360136799       -4.6096315392
 C       -10.6282644058       -2.8557896260       -2.4638166058
 C        -3.5287549220       -7.6631562838       -3.7501017880
 C        -5.5121162550       -8.2073512012       -2.1705526900
 C        -3.2147348996       -5.0948508740        3.8881707942
 C        -5.7948661808       -4.6876119964        3.3757998024
 C        -0.6832265071       -2.6814991808       -0.5519783645
 C        -1.6077937447       -0.4904948333        0.3584602889
 C         3.5799094165        0.6921793509       -2.9590185106
 C         2.0304999530        1.0511500364       -4.9419225657
 C         0.3702397224       -6.9721570896       -3.3080318680
 C         2.4991029992       -6.7059159401       -4.7424819131
 C        -4.2528839117       -3.9225455907       -6.5069233623
 C        -2.8981059771       -5.6464857674       -8.0140514489
 C        -3.9693435868       -1.6674052207      -12.7397241458
 C        -1.3880835603       -1.8746175885      -13.3187604137
 C        -0.9849042715        1.8044812342      -18.3180222116
 C        -1.6527898429        3.7649464050      -16.8043395825
 C        -5.9625090695        4.9172083857      -20.0277068311
 C        -7.7628845661        3.0735926786      -19.5110602968
 C        -7.9614271136        1.3350405677      -26.7228875269
 C        -6.4782641587       -0.5765965078      -25.9962819085
 C        -1.3443770171        4.6744968551      -26.5415719742
 C        -0.2926273768        2.9928389599      -25.0063556137
 H         0.1809209934        5.7383272296      -24.1808685564
 H        -0.6559031582        5.8555354967      -22.7564726529
 H        -1.0532588049        6.8433114120      -24.1195147358
 H        -2.4429332512        2.0167852359      -27.5810964274
 H        -3.7340733409        3.3380750076      -27.4971972851
 H        -4.2184894371        0.4342294737      -26.7001497060
 H        -4.9311385179        1.5012034679      -27.9817510906
 H        -9.0355424368        2.2491372364      -24.4156169069
 H        -7.5768092481        3.1735782011      -24.4177494378
 H        -7.9822362414        1.6325201521      -21.7666447017
 H        -9.0719269009        2.8887958549      -22.1083493791
 H        -5.9274627007        0.7110652799      -19.2874780795
 H        -5.8353658428        2.0282909489      -18.1443402246
 H        -3.1789003996        0.9020640500      -19.2828922901
 H        -4.2914668257        0.2177778604      -18.0342007485
 H        -2.4180758621        2.7749626132      -14.4499811691
 H        -0.5671967003        2.7990968301      -14.6799241691
 H        -1.0338816345        1.9709592345      -12.4790501938
 H        -0.4697062839        0.5891801093      -13.3481015056
 H        -4.3375227667       -1.5362429058      -10.1590372156
 H        -3.5877164900       -0.0287147250       -9.6641803363
 H        -3.6484613612       -1.3897402775       -7.7456033798
 H        -1.9697115607       -1.6565752698       -8.0117495369
 H         0.1644082585       -3.2792231794       -7.5339750017
 H        -0.6297263205       -4.6105180057       -8.3769192556
 H         1.5674809316       -4.6238916085       -6.5448050766
 H         1.1608100594       -5.9383324145       -7.5187444485
 H         2.9881942816       -4.0198366144       -4.6912830288
 H         3.4638858043       -4.4108843934       -3.0351223583
 H         3.4542213765       -2.4036916969       -2.4721953970
 H         1.7269933034       -2.2790798704       -2.4169112469
 H        -0.5559497326        0.4746566784       -4.3570194398
 H        -0.2997684592        1.8560457631       -3.4874205039
 H        -2.4010442915        0.6308709676       -3.1942003846
 H        -1.7750691412        0.8899226817       -1.5227179469
 H        -4.9827182497       -1.5330842529       -0.7100917357
 H        -4.1003217962       -1.0349722507        0.7809515595
 H        -5.1975538234       -3.9073526728        0.3587031487
 H        -5.9250322179       -2.6761713805        1.5122688210
 H        -2.5092524153       -7.1427235833        1.9358653910
 H        -2.3595399504       -5.7874843551        0.8911791589
 H        -4.1494773501       -8.0542735787        0.1219833053
 H        -2.3944405408       -8.2015725311       -0.1225482884
 H        -6.8117897284       -5.8516836078       -1.8151996413
 H        -6.9312836653       -6.5942216257       -3.4709840435
 H        -7.5842519776       -4.5768452070       -4.4741423514
 H        -6.5239718756       -3.5902522100       -3.5364288583
 H        -9.7045298414       -1.3607866828       -5.9491642209
 H        -9.3662154720        0.0764063543       -4.7806930350
 H       -10.8264304936       -0.7957360243       -4.5417753010
 H        -9.1773165727       -4.0184235516       -5.3015518787
 H       -10.9074151842       -3.4763207021       -5.1880064696
 H       -10.2856424906       -4.9053904716       -4.3436519934
 H       -11.2273027875       -3.7666376435       -2.1559837352
 H       -11.4607194478       -2.2135770084       -2.9448474412
 H       -10.2498464076       -2.2977327158       -1.5962874564
 H        -4.1462490559       -7.8337889922       -4.6697133267
 H        -3.0907478398       -8.5884078158       -3.4351350047
 H        -2.7144420235       -6.9342690451       -4.0870407981
 H        -5.7597511122       -8.6456407752       -3.1605870057
 H        -6.4518060658       -7.7132219202       -1.9033781350
 H        -5.2394871300       -8.9182422272       -1.3968267085
 H        -3.5002035499       -5.9155511453        4.5351810706
 H        -3.2496510783       -4.1400236030        4.4872723267
 H        -2.1817510401       -5.3186154289        3.4219227618
 H        -5.7643438464       -3.6396611118        3.7536465557
 H        -5.9987561022       -5.4130221028        4.2229075918
 H        -6.5555067912       -4.7783977788        2.5620810751
 H        -1.0788597749       -3.6605480376       -0.5922252786
 H        -0.1747404614       -2.6793468266        0.4121909615
 H        -0.0114284439       -2.5557363974       -1.3353500604
 H        -0.5748930615       -0.3348689063        0.2752989770
 H        -1.7906066242       -0.8561248368        1.3436592586
 H        -2.1842220803        0.3563383449        0.0626901973
 H         3.5220718888        1.7258982132       -2.6844308928
 H         4.5000096885        0.7061052303       -3.5708210654
 H         3.8321167722        0.1899596426       -2.0088962279
 H         1.3644673950        0.5128026180       -5.6439790815
 H         2.9233600958        1.2927528329       -5.5583320433
 H         1.6481788264        2.0657392084       -4.7373788023
 H         0.7788694453       -7.1373630696       -2.3195045860
 H         0.2075988504       -7.8550977811       -3.9067979025
 H        -0.6658828435       -6.6249836134       -3.3488880445
 H         2.4186425000       -7.7777196515       -5.0772952939
 H         3.3004784478       -6.7876161394       -3.9192007023
 H         3.0982761959       -6.2532275042       -5.5348649044
 H        -4.8318070166       -4.8257348712       -6.3420696409
 H        -4.7835544617       -3.0029613052       -6.8136829686
 H        -3.9923681133       -3.6037096273       -5.5028198489
 H        -3.5644384357       -6.2573019427       -7.4381950266
 H        -1.9652343125       -6.2037346718       -7.8181625241
 H        -3.0927646710       -5.5900944942       -9.0724398563
 H        -4.7796508682       -1.0635299858      -12.4075508990
 H        -4.0381795705       -2.6819546712      -12.3824175080
 H        -3.9218461346       -1.7150990434      -13.9243983509
 H        -1.8680451694       -2.1779468156      -14.2318153367
 H        -1.1023597005       -2.8065128595      -12.7965941818
 H        -0.4080264060       -1.3948264379      -13.4494950779
 H        -1.0972428808        2.5337798049      -19.1699253015
 H        -1.4347208337        0.8790867329      -18.6073207692
 H         0.0297981756        1.7251727832      -18.0525692917
 H        -2.1865662456        4.0177244846      -15.9464262384
 H        -1.9700905253        4.3633836571      -17.6507561408
 H        -0.6381784770        4.0133933334      -16.5665382249
 H        -6.8626295069        5.5165493159      -20.0439231997
 H        -5.2112625659        5.1371135998      -20.8828346819
 H        -5.5657424877        4.7582656640      -19.0103579121
 H        -8.6906058296        3.6097773496      -19.6398443951
 H        -7.5717694390        3.3762500286      -18.5001377740
 H        -8.0255486427        1.9909945507      -19.3861389430
 H        -8.1841846701        2.3507688019      -26.3862125249
 H        -8.9270092445        0.8956901481      -26.4488669399
 H        -7.7339885216        1.0844059395      -27.7501400078
 H        -6.0976478034       -0.7757198811      -27.0254613982
 H        -7.3950404067       -1.2121612558      -25.8527739889
 H        -5.8344104076       -1.1360914241      -25.2940855706
 H        -0.4653451938        5.2915410331      -26.3952579410
 H        -2.2537026489        5.2710741597      -26.5455223006
 H        -1.0556238099        4.2044589688      -27.4412997711
 H        -0.2656843164        2.5615469297      -24.0062467840
 H         0.6220770702        3.6001583155      -24.9867595422
 H        -0.1110176280        2.0162221203      -25.5398115162
 Na       -2.2891788282       -4.0773215068       -3.2289537831
 Na       -4.5609221227        2.8643576223      -23.2121631548
