232

 C        -1.0126488126        5.7317648935      -23.7803883548
 C        -1.9173490550        4.5721713516      -24.0048438848
 O        -2.8215133446        4.4316998720      -23.2553337207
 C        -1.7239778952        3.6654479066      -25.3565697906
 C        -2.9031157490        2.7400667366      -25.6602606679
 O        -3.1053158522        1.9228649270      -24.8067171882
 C        -3.4896888618        2.5388539374      -27.0454746653
 C        -4.5291674762        1.4035913241      -27.1122401687
 C        -5.6955321078        1.8871431990      -26.1924449790
 O        -5.6738764601        2.9786693454      -25.6298717303
 C        -6.9292797864        0.9191993182      -25.8327408288
 C        -7.1031678624        1.2510399804      -24.2563494084
 O        -6.2962441503        0.7288266902      -23.4906756498
 C        -8.1745570323        2.3574861223      -23.8229582587
 C        -8.0946829282        2.6846714994      -22.3142789314
 C        -6.8796676929        3.5462447761      -21.9731210474
 O        -6.1915730606        4.1686777201      -22.7535950733
 C        -6.6165018920        3.5629951069      -20.3791431771
 C        -5.4377176001        2.4833200718      -20.1585853523
 O        -4.4893177182        2.2655462627      -20.8827206623
 C        -5.4001098118        1.5683874919      -18.8947925273
 C        -3.8932023722        1.2007819689      -18.3659100650
 C        -3.3417492121        2.3471006884      -17.4487816856
 O        -4.0849685187        3.0247820600      -16.7798230332
 C        -1.7070394250        2.4241688862      -17.0955881672
 C        -1.5316156689        1.4885730975      -15.8479609157
 O        -1.1848466410        0.3492431019      -15.9580798682
 C        -1.6231893713        2.1414092165      -14.4630820099
 C        -1.3546903464        1.2037536533      -13.2842170642
 C        -2.7081869881        0.5083463234      -12.9279441327
 O        -3.7945874746        1.0246311446      -13.0692646865
 C        -2.5560511116       -1.0859447742      -12.4506884188
 C        -2.1852019470       -0.8432812660      -10.9098102773
 O        -1.0349086884       -0.9503121451      -10.5150041936
 C        -3.3455315956       -0.8425605870       -9.8339914068
 C        -2.8331076008       -1.6655631924       -8.5418730007
 C        -3.1148968337       -3.2338187903       -8.6146314530
 O        -3.3093690917       -3.6567983792       -9.7448980727
 C        -3.0134341251       -4.2926928667       -7.3919673909
 C        -1.6995560370       -3.8824227618       -6.6985152628
 O        -1.6060156662       -3.6028740496       -5.5066548889
 C        -0.3547431132       -3.9861848223       -7.4904375393
 C         0.6559355058       -4.9727795430       -6.8544789075
 C         0.0644433207       -5.8634900820       -5.7551737016
 O        -0.9893676262       -6.4604428755       -5.8785049045
 C         1.0733943630       -5.9948317069       -4.4655764953
 C         1.2165548331       -4.5750053002       -3.7552759714
 O         0.1949775690       -4.1663924596       -3.2822702881
 C         2.4860699871       -3.8085275338       -3.8975953068
 C         2.5778406057       -2.3937893091       -3.1658046316
 C         2.2815029175       -1.2900604844       -4.1472155507
 O         2.4045244713       -1.5460549862       -5.3346395043
 C         2.2430642023        0.2300457775       -3.7428538738
 C         1.0361384115        0.3836700772       -2.8069050511
 O         1.2197701221        0.1153254703       -1.5920685315
 C        -0.3255466855        0.6129460639       -3.3728611698
 C        -1.4805799621        0.5324822651       -2.3069313341
 C        -1.8753542478       -1.0054374867       -2.0282606424
 O        -2.1381307812       -1.6310036119       -3.0270579411
 C        -1.8429865679       -1.6084341101       -0.6273268251
 C        -3.2017081158       -2.4785817614       -0.4558916015
 O        -3.3693218485       -3.4951153490       -1.0998866732
 C        -4.4728900431       -1.9448698101        0.2032361254
 C        -5.1280793465       -3.0171957549        1.0588412705
 C        -4.0226859444       -3.6502258756        1.9500219419
 O        -2.8892495291       -3.2656899934        1.8129107479
 C        -4.3319614622       -4.9470542855        2.7706436858
 C        -4.2851554088       -6.1616607897        1.6094508618
 O        -5.3582500663       -6.6426428144        1.3446214414
 C        -2.9293828813       -6.6726455508        1.1723105848
 C        -3.1837112529       -7.5619081382       -0.0909856754
 C        -3.1908732771       -6.7210802967       -1.3520217393
 O        -2.2344079558       -6.0307372039       -1.6726262583
 C        -4.3312334434       -7.0843253299       -2.4815605015
 C        -4.9927850844       -5.8168267803       -3.0460142385
 O        -4.3826943764       -4.8772800407       -3.5317311894
 C        -6.6087546820       -5.7845414898       -3.0459213520
 C        -7.1760763998       -4.4767310754       -3.6697827109
 C        -8.3326469444       -4.0204005670       -2.8710870869
 O        -8.2783489364       -4.2661684476       -1.6718594767
 C        -9.4298862675       -3.1717504971       -3.4934417935
 C        -8.7889099983       -1.8346759141       -3.9571935694
 O        -7.6022042634       -1.6549721098       -3.7946003065
 C        -9.7048101902       -0.7900839332       -4.6325927809
 C       -10.0598556675       -3.9217780455       -4.7091478281
 C       -10.5342620642       -2.9618530868       -2.3997379355
 C        -3.4954425569       -7.6667835887       -3.7124669373
 C        -5.3214548827       -8.1593774281       -1.9567949315
 C        -3.1772168653       -5.0493350249        3.7862239733
 C        -5.6809861276       -4.8481441557        3.5076023242
 C        -0.5456990896       -2.4817017642       -0.5598967169
 C        -1.7796669635       -0.5916341776        0.5973476155
 C         3.5022995509        0.5670487686       -2.8337360654
 C         2.3295473990        1.0472390570       -4.9901284250
 C         0.3610879298       -6.9487310276       -3.4084337194
 C         2.4127506851       -6.6527082953       -4.8784260381
 C        -4.1674368933       -4.0993239714       -6.4493221538
 C        -3.0004553667       -5.7248989032       -8.0046187881
 C        -3.8391285013       -1.8154515380      -12.6862455456
 C        -1.3721792695       -1.8533183293      -13.0310823288
 C        -0.7175565082        1.9352896564      -18.1303831311
 C        -1.5187973196        3.9373164695      -16.9804476431
 C        -6.0333764632        4.9131671156      -19.9730239999
 C        -7.8706833581        3.3397493691      -19.6169408646
 C        -8.2757978112        1.2228957802      -26.5509736133
 C        -6.4499934324       -0.6285354522      -25.9181047547
 C        -1.4601010037        4.5613182361      -26.5649908111
 C        -0.4066897960        2.7172472459      -25.2016445509
 H         0.0781401937        5.5630131601      -23.9387899569
 H        -0.9254017118        6.1154411386      -22.8021420929
 H        -1.2534104909        6.5711724663      -24.3719838737
 H        -2.7529481120        2.2482855140      -27.7155193419
 H        -4.0071448092        3.4019321247      -27.4355922519
 H        -4.1285331500        0.5428263040      -26.6606661723
 H        -4.9875799153        1.1613927805      -28.0922730984
 H        -9.1387072588        1.9967037453      -23.9844681429
 H        -8.1312492030        3.3724664954      -24.4673309255
 H        -8.0916222286        1.8227660924      -21.7007056473
 H        -9.0801672455        3.1163563015      -22.0656358402
 H        -5.8064847528        0.6326640850      -19.2538430669
 H        -6.1173992227        1.9800205563      -18.1525768160
 H        -3.2418982540        0.8215135535      -19.2007892474
 H        -4.1498875364        0.3993954309      -17.7206771913
 H        -2.5862217109        2.6384337391      -14.3418239931
 H        -0.7453789204        2.8079699632      -14.4988808984
 H        -1.1268092342        1.8505733224      -12.4317070846
 H        -0.5716904300        0.4642032618      -13.4471336106
 H        -4.2333540244       -1.2786690654      -10.2139421933
 H        -3.6722941910        0.2266182796       -9.5928115064
 H        -3.3066385241       -1.0989702221       -7.6193346576
 H        -1.7633899652       -1.5752983457       -8.4157384942
 H         0.1919189368       -3.0146153138       -7.4099541567
 H        -0.5327559968       -4.2006346547       -8.5568506765
 H         1.4899317025       -4.3384478286       -6.4545238531
 H         1.1216304827       -5.6339998383       -7.5659002190
 H         2.8391798676       -3.7853982506       -4.9376437166
 H         3.2734091391       -4.3445639303       -3.4160937263
 H         3.5414954220       -2.2895038236       -2.7601200292
 H         2.0422901450       -2.3553713380       -2.2883495994
 H        -0.3012401394       -0.2357414845       -4.2283627470
 H        -0.3705041307        1.5597959214       -4.0668470963
 H        -2.3760951731        0.9378522398       -2.8225809616
 H        -1.3238745246        1.1155808966       -1.3781850178
 H        -5.0696832589       -1.6096255052       -0.6071127315
 H        -4.2359028825       -1.0559659910        0.7390289510
 H        -5.5052830864       -3.8577359207        0.4593639776
 H        -5.8912629084       -2.6446347465        1.6310129977
 H        -2.5055842440       -7.4607133212        1.8685476015
 H        -2.1460738549       -5.9091973177        0.8964009647
 H        -4.1415239273       -8.0439841213        0.0806390249
 H        -2.2948087395       -8.2339452716       -0.3081084451
 H        -6.8219145746       -5.7308468359       -2.0355186207
 H        -6.9990434447       -6.6810566866       -3.4767986274
 H        -7.4077476850       -4.4317433063       -4.7496446677
 H        -6.4241774389       -3.6976549950       -3.5848005937
 H       -10.2101411746       -1.3480074652       -5.3986491740
 H        -9.1960282561        0.1077766091       -4.9137384553
 H       -10.4142316833       -0.4814804044       -3.8080473473
 H        -9.6728190490       -3.6978929819       -5.7151276186
 H       -11.0428637266       -3.6085515089       -4.6991068606
 H       -10.0333698070       -5.0653560435       -4.5728860993
 H       -10.8974835846       -3.9168392427       -2.1002464530
 H       -11.3864862698       -2.4342909976       -2.7329592812
 H       -10.1395132870       -2.4173629431       -1.5436065122
 H        -4.1725122589       -7.8428185879       -4.5508047657
 H        -3.0426535699       -8.6263885573       -3.3450317026
 H        -2.7844357871       -6.9938076771       -4.1534481261
 H        -6.1789676607       -8.3740137853       -2.5833312362
 H        -5.5328513244       -7.8980569569       -0.8901639707
 H        -4.6742917192       -9.0168852334       -1.8018828593
 H        -3.0111887534       -6.1159335654        4.0879273816
 H        -3.5778495286       -4.5152243484        4.6126743720
 H        -2.2640957724       -4.6108614198        3.4539721818
 H        -5.5338823462       -4.1287135438        4.3064594986
 H        -5.8656493230       -5.8535602854        3.8333465848
 H        -6.5513243973       -4.5551010772        2.9287201209
 H        -0.2008524093       -2.8145404700       -1.5719486180
 H        -0.7384978086       -3.4436767155       -0.1082958344
 H         0.3180650158       -1.8312699906       -0.1831465513
 H        -0.8769247079        0.1000066104        0.4973843226
 H        -1.5572109972       -1.2608817292        1.4505878587
 H        -2.7731050448       -0.0957381104        0.6749661729
 H         3.6212627254        1.6530743323       -2.6399725338
 H         4.3983147011        0.3518187954       -3.3736189193
 H         3.6269435759        0.1476131865       -1.8511651728
 H         1.5139978709        0.9397116271       -5.7119869713
 H         3.2422219316        0.7502862339       -5.5246078627
 H         2.4631435683        2.1176793323       -4.8331835679
 H         1.1994903962       -7.1176692289       -2.7360353010
 H        -0.0488505778       -7.8629831417       -3.8652430202
 H        -0.5268074766       -6.5305391472       -2.9416095078
 H         2.2798746067       -7.6668187150       -5.1286662797
 H         3.2337749399       -6.5914681839       -4.2792825454
 H         2.8335168425       -6.2867362770       -5.7975065777
 H        -4.2751334557       -5.0315506442       -5.8851876001
 H        -5.0783736855       -3.8561583087       -7.0019490247
 H        -4.0998134052       -3.2416500074       -5.7194699597
 H        -3.8666321500       -6.3628560967       -7.7246858084
 H        -2.1150883365       -6.2891299110       -7.7003741908
 H        -2.9279903949       -5.5294910113       -9.1130470812
 H        -4.5312446032       -1.1561234435      -12.1166203933
 H        -3.8884747459       -2.8645213540      -12.3914037838
 H        -4.0250503506       -1.8684906461      -13.7076814172
 H        -1.7382818471       -2.8312332330      -13.4088585666
 H        -0.5622730773       -2.0944011166      -12.3354849802
 H        -0.9549842121       -1.2843281441      -13.8762184429
 H        -0.9687333386        2.3465600455      -19.0714178261
 H        -0.6453215720        0.8379173775      -18.1212599774
 H         0.2495987200        2.4421725152      -17.8049898849
 H        -2.2172064293        4.4211976703      -16.2621669063
 H        -1.5030854074        4.3179137059      -18.0076667721
 H        -0.5052018705        4.2590050106      -16.6530651755
 H        -6.8946385456        5.5520185807      -20.0403080297
 H        -5.3151697492        5.1152564902      -20.6900350770
 H        -5.6178223846        4.7709563653      -18.9922801912
 H        -8.6036875298        4.0760565035      -19.8511502962
 H        -7.8958839234        3.4225602234      -18.5118481786
 H        -8.2886585486        2.4140627005      -19.8747155824
 H        -8.7441828947        2.1836493698      -26.3276872395
 H        -9.0421513464        0.5082574067      -26.2169413008
 H        -8.0640077790        0.9793880544      -27.6304636932
 H        -6.2289553243       -1.0500628241      -26.8531796962
 H        -7.2062308919       -1.2714711531      -25.6004569975
 H        -5.5978759550       -0.8671885147      -25.3007550145
 H        -0.7002507139        5.3019414833      -26.3468987305
 H        -2.3765720789        5.0748016598      -26.8015860835
 H        -0.9583145924        4.0047302669      -27.3564415002
 H        -0.4962273878        1.8860532825      -24.5303695334
 H         0.4597623522        3.2539738913      -24.7998937730
 H        -0.1352991127        2.1551398652      -26.0675421328
 Na       -2.1572463637       -4.1455711226       -3.0611773648
 Na       -4.4124689419        2.9298065170      -23.2996146837
