232

 C        -0.9266458280        5.6086733683      -23.9682766803
 C        -1.9478065311        4.4222088716      -24.2002242193
 O        -2.7701154285        4.2090977399      -23.2870157510
 C        -1.7527464955        3.6174653543      -25.5226508990
 C        -2.8997532673        2.5803393962      -25.7738933417
 O        -3.2659327931        1.8163101200      -24.8624872648
 C        -3.5017959095        2.4869217588      -27.1461054276
 C        -4.6773916966        1.4883981158      -27.2239933185
 C        -5.8238550447        1.9039184429      -26.1462941459
 O        -5.8884127283        3.0122641333      -25.6491721382
 C        -6.9064832813        0.8278274104      -25.8048022232
 C        -7.1191525453        1.3104312281      -24.1759518295
 O        -6.4275042685        0.8556945388      -23.3040601494
 C        -8.2579186102        2.3005023457      -23.8372864007
 C        -8.2754847713        2.6407014314      -22.3297430032
 C        -7.0263151022        3.4131732168      -21.8437371187
 O        -6.3856761140        4.0654174114      -22.6465846945
 C        -6.5869460818        3.4771813319      -20.3275613415
 C        -5.4624841722        2.4602145387      -20.0790075911
 O        -4.6765742702        2.2109353545      -20.9926298927
 C        -5.2163323602        1.8240470044      -18.7519650003
 C        -3.8182580511        1.4146127421      -18.4083432011
 C        -3.2105707816        2.3709514093      -17.3233109046
 O        -3.9902077227        3.1254485018      -16.7525304079
 C        -1.6039029144        2.5080612609      -17.0695689318
 C        -1.3712771516        1.7433096671      -15.7711206257
 O        -0.8836280529        0.6507469712      -15.8195708745
 C        -1.7265110396        2.3001818742      -14.4297737960
 C        -1.4233871538        1.2832610321      -13.2273543389
 C        -2.7025546817        0.3313328154      -12.7842362618
 O        -3.7700411775        0.9201309993      -12.6536663894
 C        -2.6016487510       -1.1548330382      -12.2640553036
 C        -2.1014553402       -0.8917356492      -10.7900250298
 O        -0.9742474913       -0.6184330564      -10.4691323084
 C        -3.2501340472       -0.8608705223       -9.6766411412
 C        -3.0058668633       -1.7883002000       -8.5192284138
 C        -3.1564630690       -3.2364970326       -8.8292600840
 O        -3.3235961665       -3.6476733361       -9.9558638003
 C        -3.0706834328       -4.1716318719       -7.5388566119
 C        -1.7701857286       -3.7453696224       -6.7637190431
 O        -1.7891238774       -3.4565443593       -5.5723836444
 C        -0.4652914608       -3.9402156878       -7.6025167989
 C         0.6633513610       -4.8280536594       -6.9068376469
 C         0.1494140524       -5.7555556384       -5.7971425611
 O        -0.8231682833       -6.4558309134       -5.9163554296
 C         1.0782807325       -5.8702599801       -4.4745200457
 C         1.1951927074       -4.5252476552       -3.8976554985
 O         0.2396920428       -3.9826401663       -3.3047383782
 C         2.5826374249       -3.8102391084       -3.8964861689
 C         2.4698947426       -2.4190643844       -3.3803655049
 C         2.5225705297       -1.3366703189       -4.3016925469
 O         2.5164146393       -1.5929322374       -5.5048207146
 C         2.3533718119        0.1233775297       -3.6660549876
 C         1.1177113694        0.1972078295       -2.7563452055
 O         1.2154954899        0.0851051938       -1.5534058669
 C        -0.3185214240        0.4684978104       -3.2831739388
 C        -1.2952810526        0.5025323171       -2.1650408870
 C        -1.9053937930       -0.8430803045       -1.9749183333
 O        -2.2650240236       -1.5695580684       -2.8769797648
 C        -2.0290493910       -1.4706799347       -0.5044209124
 C        -3.2726800999       -2.3323060780       -0.5032894938
 O        -3.4127796406       -3.3332758144       -1.1944032884
 C        -4.5855647196       -1.8920537979        0.2299740575
 C        -5.1557797591       -3.0158361805        1.1655254667
 C        -4.0251539716       -3.7884014389        1.9043689969
 O        -2.8720688017       -3.3759034536        1.7908126706
 C        -4.2319657775       -5.1406007577        2.7183205594
 C        -4.2563649141       -6.2173469986        1.6479105006
 O        -5.3609652936       -6.7224075759        1.3875429565
 C        -2.8572247677       -6.6042871667        1.1595853842
 C        -2.8735518426       -7.6364090498        0.0768911443
 C        -3.1239850960       -6.9032747214       -1.4212022721
 O        -2.2634155658       -6.0627110879       -1.6362516991
 C        -4.1510039477       -7.2277788037       -2.4941779355
 C        -4.8950365327       -5.8446302282       -3.0045054984
 O        -4.2251208484       -4.9072852040       -3.3555029267
 C        -6.4140531292       -5.9485591006       -3.1954313979
 C        -7.1312307713       -4.7323280247       -3.7721818584
 C        -8.3297679464       -4.1252490781       -2.9605227172
 O        -8.4066163497       -4.4526237086       -1.8220169917
 C        -9.4237701692       -3.1284996648       -3.5392213368
 C        -8.7526699654       -1.7661885746       -3.9598311563
 O        -7.5609933059       -1.6217091306       -3.8139246580
 C        -9.7249449794       -0.6245835062       -4.3893056606
 C       -10.0475271424       -3.9093042864       -4.7287340285
 C       -10.4513557143       -2.8914448485       -2.4506365227
 C        -3.4801426551       -7.8211758648       -3.7646412142
 C        -5.1770133293       -8.2581339133       -1.9260919076
 C        -3.1560032120       -5.3378055092        3.7730604839
 C        -5.6144040827       -5.0890766754        3.4336180591
 C        -0.8395347976       -2.4646930903       -0.4283539641
 C        -1.9243921412       -0.3741045108        0.6099160869
 C         3.6202204532        0.3254108756       -2.8153006091
 C         2.2688675468        1.1972969445       -4.7421766652
 C         0.4207269231       -6.9448151132       -3.5889785180
 C         2.3324817286       -6.4701191296       -5.0451882730
 C        -4.2678867360       -3.8072218536       -6.6260851893
 C        -2.9942954955       -5.6454406150       -8.0057958619
 C        -3.9345058363       -1.8130744879      -12.4834978917
 C        -1.3982763488       -1.8582080001      -13.1865420612
 C        -1.0230627436        1.8806500931      -18.4035682956
 C        -1.2914619889        3.9981131077      -16.8092258990
 C        -5.7859531571        4.8951779368      -20.0317941910
 C        -7.6926862051        3.2746816445      -19.3244167170
 C        -8.1559724885        1.1101841922      -26.7025676800
 C        -6.5099909134       -0.6171366143      -25.8617738274
 C        -1.5106285531        4.6396678250      -26.6892360254
 C        -0.4782760587        2.8306227536      -25.1476772259
 H         0.1441447221        5.4814952026      -23.9326514867
 H        -0.9254922241        6.1312886454      -22.9884309835
 H        -1.0629940979        6.4475367953      -24.6958905051
 H        -2.8197762781        2.2068861835      -27.9961930773
 H        -4.0373228809        3.4204531950      -27.3972693598
 H        -4.3633128518        0.4300940280      -27.0391682725
 H        -5.2142850138        1.5778910906      -28.1434549027
 H        -9.2943302429        1.9153133349      -24.1688583762
 H        -8.0688059767        3.1511990975      -24.3353627783
 H        -8.4077761521        1.6873381642      -21.7696497597
 H        -9.1700654904        3.2521121840      -22.0913593476
 H        -6.0980825708        1.1989823860      -18.5682914624
 H        -5.4155948977        2.7560454625      -18.2072409673
 H        -3.3646816094        1.4707049678      -19.3774942992
 H        -3.7077014375        0.3651420584      -17.9551658647
 H        -2.7852809925        2.5141378615      -14.4728282916
 H        -1.1338724863        3.2001204151      -14.3070735130
 H        -1.1773086003        1.8289729008      -12.2878265901
 H        -0.6027251499        0.6702904149      -13.6406138978
 H        -4.2018515682       -0.9746037476      -10.1948921928
 H        -3.2586871700        0.1628519003       -9.3122482730
 H        -3.6783525549       -1.5645115220       -7.7634760220
 H        -2.0150131525       -1.4202961836       -8.0598352457
 H         0.0085441316       -2.9916830389       -7.8200805195
 H        -0.7138287909       -4.3779056821       -8.5699608596
 H         1.4222274851       -4.1718413515       -6.4671024828
 H         1.1839277140       -5.3538157641       -7.7848795069
 H         2.9961559440       -3.6909224401       -4.8822165868
 H         3.3650770653       -4.3624695596       -3.3467429040
 H         3.1528805652       -2.0451727831       -2.5549905098
 H         1.5051143643       -2.4358810388       -2.7459934220
 H        -0.6397841817       -0.0406398260       -4.1086160299
 H        -0.2965705615        1.4050030054       -3.6817221820
 H        -2.1188500516        1.2043351879       -2.3167525321
 H        -0.8545712172        0.7518425037       -1.1933798611
 H        -5.4144426838       -1.6799798158       -0.4908939012
 H        -4.4143536639       -0.8840085953        0.6640987286
 H        -5.8905578343       -3.6635639916        0.6746478661
 H        -5.7428781123       -2.4145932373        2.0113731561
 H        -2.2294854373       -6.9925678219        1.9134415587
 H        -2.4397186652       -5.7364127584        0.7064555275
 H        -3.7685922406       -8.2232427674        0.3135399432
 H        -1.9361019908       -8.1186558216       -0.0825610196
 H        -6.8039899038       -6.2692904968       -2.1537353689
 H        -6.4607245743       -6.7752294174       -3.9437479104
 H        -7.2220752991       -4.8045357402       -4.8530134690
 H        -6.3988157058       -3.8621240181       -3.7206255447
 H       -10.5890870838       -0.9898764234       -4.8989157376
 H        -9.1002046949        0.0112543122       -5.0844391624
 H        -9.9662960742       -0.0855784830       -3.5257349599
 H        -9.3030956809       -4.1048260902       -5.4756582983
 H       -10.8840173221       -3.3285908726       -5.2426427681
 H       -10.3309419597       -4.8477382018       -4.3788035303
 H       -10.8198505916       -3.8607925538       -2.1103560494
 H       -11.2454201711       -2.3036198670       -2.9095794307
 H       -10.1060804769       -2.3293839247       -1.6008748842
 H        -4.1836619991       -8.1482475986       -4.4844042223
 H        -2.8126567807       -8.5931584682       -3.4967129533
 H        -3.0319486779       -6.9960068588       -4.2750147758
 H        -5.6746558025       -8.5444391110       -2.8746644682
 H        -5.7047175477       -7.8811713474       -1.1025537846
 H        -4.6776181929       -9.1834576887       -1.5450216943
 H        -3.2925787729       -6.3023574922        4.1927435702
 H        -3.1711663232       -4.6354333017        4.5993971516
 H        -2.2015630348       -5.2347295165        3.2743951855
 H        -5.6710679612       -4.1716518321        3.9690621545
 H        -5.7894539007       -6.0298939889        3.9059533705
 H        -6.4091714364       -5.0422747216        2.7245644738
 H         0.1599536513       -2.1630534114       -0.7174443011
 H        -1.1584065067       -3.3055154609       -1.0792332615
 H        -0.7285951072       -2.7059224098        0.5768189605
 H        -0.9213223256       -0.2699844710        0.8532841567
 H        -2.4737161993       -0.7643259295        1.4596036948
 H        -2.3574001611        0.5416849156        0.2908736216
 H         3.7589690868        1.3424983721       -2.5681793249
 H         4.5664449644       -0.0674124963       -3.2607134326
 H         3.5934606163       -0.1031952585       -1.8243264177
 H         1.2965775297        1.2556003004       -5.1765458110
 H         2.9869070589        1.1231565055       -5.5161771572
 H         2.4154961525        2.1659384203       -4.2858987885
 H         1.1493082556       -7.3621345341       -2.8884141323
 H        -0.0512538863       -7.6473284817       -4.2399443810
 H        -0.4532587455       -6.5001205761       -3.1498045347
 H         2.2609806700       -7.2788578454       -5.7568568669
 H         3.0061703338       -6.8570525164       -4.2288813888
 H         3.0852419341       -5.8350564143       -5.5116380068
 H        -4.0432133350       -3.7322881390       -5.5663745062
 H        -5.1517100274       -4.5245764703       -6.6943216972
 H        -4.5717316453       -2.8676426589       -6.9608408284
 H        -4.0450297750       -5.9557218005       -8.0295504680
 H        -2.4240667859       -6.2656453468       -7.3176118412
 H        -2.6468985749       -5.7597944044       -8.9967441161
 H        -4.7020084201       -1.0816291499      -12.3622696178
 H        -4.1050474133       -2.6874365281      -11.8151968611
 H        -3.8538388488       -2.4150277800      -13.4357065905
 H        -0.8850865419       -2.7040068276      -12.7290880844
 H        -0.5291480146       -1.2003961997      -13.3107479484
 H        -1.8137836097       -2.0386431925      -14.1592051794
 H        -1.5318016040        2.4261581672      -19.2410644932
 H        -1.2137870131        0.8173927586      -18.4088514073
 H        -0.0187284975        2.0834582292      -18.4134903493
 H        -2.0230275993        4.4854640204      -16.1587890304
 H        -1.1095559610        4.5392042368      -17.7211784950
 H        -0.3178249747        4.1154542719      -16.3439707196
 H        -6.4848826546        5.6506940790      -20.4302494922
 H        -4.8346991250        4.8395215895      -20.5731806050
 H        -5.5731638804        4.8123473352      -18.9907412610
 H        -8.6044218970        3.9302182828      -19.4614417833
 H        -7.3556464597        3.5438980117      -18.3515364693
 H        -8.1130150816        2.2360185446      -19.2840922587
 H        -8.2526345589        2.2026525440      -26.8065744834
 H        -9.0255894901        0.7275593446      -26.1709087815
 H        -8.0806723939        0.6962633651      -27.6626312068
 H        -6.3913392118       -1.0433267784      -26.9093719650
 H        -7.3484963189       -1.3247559575      -25.5905691207
 H        -5.5487286393       -0.8943216580      -25.4455519108
 H        -0.4946299803        5.0502616928      -26.6229627121
 H        -2.2156268539        5.4757739126      -26.6190130775
 H        -1.5802477435        4.0753452625      -27.6500774309
 H        -0.5863212904        1.9663320766      -24.4415294317
 H         0.2925271127        3.4130136527      -24.7517219564
 H        -0.0457731242        2.3265293169      -25.9703009996
 Na       -2.0685192331       -4.0565478841       -3.1807198655
 Na       -4.6716894881        2.6588165005      -23.2216193661
