232

 C        -1.1909938611        5.5680890728      -24.0010394308
 C        -1.9387265283        4.3767586822      -24.2031849602
 O        -2.8532314975        3.9787688726      -23.5031557666
 C        -1.7153387555        3.5326202324      -25.6754224766
 C        -2.9157912814        2.4662945019      -25.8421733530
 O        -3.2369020394        1.6977851850      -24.9402648853
 C        -3.6082723398        2.4983619671      -27.1833909051
 C        -4.8546066625        1.6058033699      -27.2085221177
 C        -5.8493481525        1.9991857187      -26.0931696599
 O        -5.8801580500        3.1856866327      -25.7228105966
 C        -6.9419771785        0.9746257555      -25.5811405175
 C        -7.2416601657        1.2478738999      -24.0913378801
 O        -6.4874447534        0.8121548179      -23.2249707996
 C        -8.3190022799        2.2442327207      -23.7203421487
 C        -8.4328701766        2.4764763423      -22.2044684357
 C        -7.1548931468        3.2969319119      -21.8264486032
 O        -6.6167514592        4.0436197484      -22.6431980791
 C        -6.5458145387        3.4006382281      -20.3802383368
 C        -5.5186156132        2.2588204045      -20.1186140310
 O        -4.7086360107        1.9253635191      -20.9576012524
 C        -5.2631776926        2.0049368005      -18.5053063032
 C        -3.7305675688        1.7446637553      -18.2790122492
 C        -3.2409769962        2.6475268541      -17.1021487705
 O        -3.8977894521        3.3907501914      -16.4320271683
 C        -1.6010682188        2.5431957133      -17.0020878923
 C        -1.3568751471        1.7181638464      -15.7826788373
 O        -0.5536490139        0.7459406780      -15.8543906386
 C        -1.9447149083        2.1096365275      -14.4487847027
 C        -1.5542196234        1.3171269202      -13.2210186374
 C        -2.7649233849        0.5378311598      -12.7079666619
 O        -3.8542260476        0.9997610266      -12.4940863815
 C        -2.4585212605       -0.9705090304      -12.2749440940
 C        -2.0879431427       -0.7584665609      -10.7953514913
 O        -0.9135788280       -0.6291717277      -10.5712568620
 C        -3.2048981259       -0.5984913900       -9.7107979015
 C        -3.0864566695       -1.6377457538       -8.6476329708
 C        -3.1608460895       -3.1203494830       -8.8739366861
 O        -3.2426019049       -3.5758139322       -9.9580193742
 C        -3.2421553540       -4.0238226444       -7.5884823636
 C        -1.8146706603       -3.8152426167       -6.8246331590
 O        -1.8174289079       -3.4469507737       -5.6839187251
 C        -0.5900542250       -4.0065621956       -7.7288301139
 C         0.5924051670       -4.5138342410       -6.8609171143
 C         0.2712271431       -5.7453462121       -5.9562487814
 O        -0.8021364650       -6.2915755812       -6.0862547278
 C         1.1555074893       -5.9379517372       -4.6021450504
 C         1.2836036823       -4.5407207971       -3.9145275095
 O         0.2915866463       -4.0530405800       -3.4099516461
 C         2.6438837991       -3.9130997761       -3.8966094825
 C         2.6536103580       -2.4827016535       -3.2995014611
 C         2.5146994553       -1.1760045552       -4.2517941259
 O         2.4959017844       -1.3785562857       -5.4278704559
 C         2.4518954142        0.2529314593       -3.5668716265
 C         1.2474270109        0.2008483397       -2.5934387633
 O         1.4881698182       -0.1945803626       -1.4924874925
 C        -0.1398189400        0.5741669697       -3.1130652087
 C        -1.4561469376        0.5835386790       -2.2361397295
 C        -1.9999210910       -0.8532723856       -1.9559803871
 O        -2.1531034648       -1.5630295957       -2.9492553405
 C        -2.1511885584       -1.4169861220       -0.5146597177
 C        -3.4976581564       -2.2687223677       -0.4599270463
 O        -3.6036492366       -3.2869925702       -1.1438472565
 C        -4.6463201962       -1.9272497729        0.5132009850
 C        -5.0940751838       -3.1371229183        1.3484112563
 C        -3.9457688352       -3.8661372375        1.9994189925
 O        -2.7853299268       -3.4878370900        1.8630203809
 C        -4.2792293007       -5.1708479700        2.7057093172
 C        -4.1999846529       -6.3639845418        1.5708957046
 O        -5.1617548187       -6.9111927374        1.1099928649
 C        -2.6843627260       -6.6074270519        1.0717783674
 C        -2.8079361630       -7.6314441734       -0.2124312977
 C        -2.9672643172       -6.8147147513       -1.4367844626
 O        -2.1846347551       -5.9602995223       -1.8445441828
 C        -4.1468902077       -7.3156713988       -2.5368713764
 C        -4.9850400413       -6.0420020914       -3.0351278158
 O        -4.2481129421       -5.0725103500       -3.2891728689
 C        -6.5180942225       -6.0192001567       -3.1789709600
 C        -6.9815293311       -4.6371471139       -3.6881478959
 C        -8.2475526307       -4.2938121260       -2.9537746904
 O        -8.3911670407       -4.7923384327       -1.8258924943
 C        -9.2935760063       -3.2176294473       -3.5827325931
 C        -8.6621853313       -1.8177072239       -3.9277487350
 O        -7.4523715797       -1.6367680654       -3.9695778745
 C        -9.5775723267       -0.6583362554       -4.1888563181
 C        -9.9295417293       -3.6874732110       -4.8724462552
 C       -10.3807712719       -2.9662434018       -2.5289930241
 C        -3.3112401615       -7.9322351000       -3.6576509184
 C        -5.1250677223       -8.4432070808       -2.0364166769
 C        -3.2108251324       -5.3581763171        3.8563924972
 C        -5.7240125072       -5.0886106756        3.4177546143
 C        -1.0062734740       -2.3969550272       -0.1125560831
 C        -2.1997567553       -0.3236254610        0.5880109772
 C         3.8577192906        0.3110682771       -2.9910845110
 C         2.3421996225        1.2772631026       -4.7197888242
 C         0.4478487907       -6.9115861136       -3.6355417384
 C         2.4575747432       -6.4712113772       -5.1064496591
 C        -4.5827817506       -3.8458301316       -6.7336113775
 C        -3.3317442284       -5.5752672674       -8.0333405587
 C        -3.8611361942       -1.8535448004      -12.4409580883
 C        -1.3895308317       -1.8397005845      -12.9667458590
 C        -0.6439190995        1.8890895479      -18.1850994270
 C        -1.0893628191        4.0110586041      -16.8597220252
 C        -5.8691347787        4.8623349159      -20.2195196404
 C        -7.7554520108        3.2870763117      -19.3363628901
 C        -8.2262729413        1.1587257678      -26.5467690187
 C        -6.4811497239       -0.4728611236      -25.5975148355
 C        -1.4488499568        4.5032025831      -26.8554866122
 C        -0.5500916676        2.6316304544      -25.4725878965
 H        -0.1329641757        5.5042014960      -23.9903979987
 H        -1.2677992332        5.9983458116      -23.0276136395
 H        -1.3780306390        6.3316283060      -24.7026281682
 H        -3.0227686220        2.1820391251      -28.0415605953
 H        -4.0385528153        3.4624678948      -27.3995669982
 H        -4.6587966579        0.5482261054      -27.1162756764
 H        -5.4650510851        1.8041097119      -28.1496162945
 H        -9.2220249735        1.8500106388      -24.1157648827
 H        -8.0679413277        3.2998802082      -24.2408443402
 H        -8.5022978851        1.4597096604      -21.7586467563
 H        -9.2033037598        3.1681522217      -21.7545406626
 H        -5.8587830037        1.0755400717      -18.3669669213
 H        -5.7282677698        2.7716489622      -17.7969741017
 H        -3.1910775034        1.9791640963      -19.2289366051
 H        -3.5570674513        0.7657573348      -18.0105208713
 H        -3.0547222156        1.9460379003      -14.5327321767
 H        -1.7324496346        3.1891867530      -14.2351645952
 H        -1.5503469706        2.0800526411      -12.4711518940
 H        -0.6630911872        0.7162906396      -13.2966176495
 H        -4.1962113358       -0.6381668355      -10.3782731999
 H        -3.1205968858        0.3942899183       -9.3464381806
 H        -3.7249156922       -1.3218220984       -7.7639273712
 H        -2.1417808250       -1.4305703420       -8.2569879333
 H        -0.3205697057       -3.0591174400       -8.2336685057
 H        -0.7462234717       -4.7211512170       -8.5443586410
 H         0.9834960645       -3.7507052980       -6.2189700557
 H         1.3181433129       -4.6839460934       -7.5666271180
 H         3.3877618489       -3.9433574347       -4.7357284229
 H         3.0819568535       -4.5672442250       -3.1134438799
 H         3.3908696696       -2.2222511420       -2.5887500165
 H         1.8140267552       -2.5860771116       -2.6568033372
 H        -0.3031237214       -0.0198619054       -4.1279716120
 H         0.0343030142        1.5816689066       -3.7408770365
 H        -2.2658940049        1.1180001366       -2.7524345782
 H        -1.3688125097        1.1994608065       -1.2947139917
 H        -5.4994749286       -1.6474987573       -0.1210337242
 H        -4.4498062427       -1.0031010654        1.0257470841
 H        -5.5490204800       -3.9109231062        0.7002581547
 H        -5.8392323061       -2.8420998818        1.9536161757
 H        -2.1843184019       -7.3015807475        1.7958762294
 H        -2.0144785007       -5.7572281256        0.7835951958
 H        -3.6838578152       -8.2145802066       -0.0680164172
 H        -1.8808279436       -8.1413124761       -0.4728098486
 H        -6.9291229950       -6.2179914868       -2.2207506386
 H        -6.7535887569       -6.7609489677       -3.9492245319
 H        -7.2252929687       -4.7213947740       -4.7575057849
 H        -6.2946124722       -3.8491076274       -3.7184926279
 H       -10.6560206796       -1.0343625329       -4.3853235762
 H        -9.2003494176       -0.1052879978       -5.0215254121
 H        -9.5981983313       -0.1191637405       -3.1755492596
 H        -9.2530833656       -4.3355818789       -5.4680371754
 H       -10.2319373032       -2.8535035668       -5.4456858684
 H       -10.7931023566       -4.3484325385       -4.6144094920
 H       -10.6631963543       -3.9636327115       -2.0973317632
 H       -11.2272208165       -2.2983883492       -2.8735388012
 H        -9.9177074579       -2.4376161248       -1.6585218618
 H        -3.9376533186       -8.0219063057       -4.5883942808
 H        -2.9623705547       -8.9417709238       -3.3631811670
 H        -2.5106611873       -7.2028827610       -3.9397653420
 H        -5.5003792811       -8.9865543357       -2.8647661751
 H        -5.7338890666       -7.8478926373       -1.3199162508
 H        -4.6677225700       -9.1680266159       -1.4275405351
 H        -3.3314999812       -6.2684536922        4.5071415038
 H        -3.2399709914       -4.4935320489        4.5755328686
 H        -2.2012469401       -5.2072455115        3.3612311300
 H        -5.9065945243       -4.0770479759        3.8017767813
 H        -5.8764068441       -5.9768852356        4.0405327756
 H        -6.5153470423       -5.2128953923        2.6386367094
 H        -0.7928347651       -2.2831858136        0.9361496780
 H        -0.1536638066       -2.2675957862       -0.7086745101
 H        -1.3497367985       -3.4643042803       -0.1009965794
 H        -1.3810401650        0.4565001618        0.5185578837
 H        -2.2851120329       -0.8664474162        1.5005284973
 H        -3.1528490832        0.2510458798        0.4965665379
 H         4.1099112148        1.2933727072       -2.5166687163
 H         4.6561975890       -0.0229803075       -3.5969920307
 H         3.9408192061       -0.3706180262       -2.1166593888
 H         1.6752223896        0.8568271782       -5.5174680795
 H         3.3413704550        1.5253327048       -5.1820163836
 H         1.8453503227        2.2340944571       -4.4596507944
 H         1.0729799943       -6.9057717311       -2.7702080378
 H         0.3975851552       -7.9583976934       -4.0300154648
 H        -0.5752496154       -6.5227027771       -3.4647757196
 H         2.3761911389       -7.4389531819       -5.6579558708
 H         3.3296326519       -6.5904395957       -4.4981264211
 H         2.9221091318       -5.8479737157       -5.8722591121
 H        -4.5578899590       -3.0214703329       -5.9847298415
 H        -4.5931081627       -4.6992427879       -6.1340591047
 H        -5.4617897634       -3.5931116992       -7.4335669248
 H        -3.9898129025       -5.6489211968       -8.8760741548
 H        -3.5463847884       -6.1805568426       -7.1544818375
 H        -2.3693300359       -6.0216111457       -8.4157146604
 H        -4.6551087664       -1.2163613901      -12.0216396994
 H        -3.8447739541       -2.7823295797      -11.9730029781
 H        -4.1431626729       -2.1511435021      -13.4628665945
 H        -0.6905439451       -2.1770930090      -12.2426480058
 H        -0.6548207689       -1.3372165947      -13.5773953122
 H        -1.8671206131       -2.6342064702      -13.5634030739
 H        -0.6776754803        2.5710481993      -18.9838971894
 H        -1.0674033808        0.9413485780      -18.4976464869
 H         0.3755993390        1.7124141859      -17.6810435770
 H        -1.5935506227        4.5012070785      -16.0685852945
 H        -1.4201608382        4.5864853095      -17.7336946991
 H        -0.0108798907        4.1590280761      -16.8464348532
 H        -6.6994586014        5.5136457595      -20.3087781924
 H        -5.1027322957        4.9893424929      -21.0016401420
 H        -5.3765266967        4.6909982203      -19.2472028520
 H        -8.6043544247        3.8747878826      -19.5455110593
 H        -7.3794280670        3.6677716993      -18.3391560817
 H        -8.1464847762        2.2955650170      -19.1685783056
 H        -8.6134363234        2.1939082483      -26.5576027379
 H        -8.9400941658        0.3333841877      -26.3751464840
 H        -7.8008190077        1.1518815485      -27.6246293436
 H        -5.9226045870       -0.9124823627      -26.3604758650
 H        -7.2840461712       -1.1413307048      -25.4682405014
 H        -5.7106821141       -0.5602001395      -24.8162649751
 H        -0.6340652746        5.1573900373      -26.4905072197
 H        -2.2915925708        5.1844635685      -27.0587281997
 H        -1.2387050234        3.9227363266      -27.7310232402
 H        -0.4565568747        2.1635217525      -24.5339751061
 H         0.4567496169        3.1627338217      -25.5806103483
 H        -0.3750569819        1.7669086220      -26.2043494255
 Na       -2.1780805764       -3.8591058721       -3.2306198191
 Na       -4.8346034948        2.4933575319      -23.2947543720
