232

 C        -1.3578915872        5.4283927535      -24.1235209959
 C        -2.0940407889        4.0837986215      -24.3500656534
 O        -3.0156275337        3.8213197582      -23.6160708544
 C        -1.7121326929        3.3862485271      -25.7056138392
 C        -2.9421292943        2.4074590633      -26.0568323337
 O        -3.2782601095        1.6614190852      -25.1647084038
 C        -3.7922180735        2.6096173766      -27.3092844048
 C        -5.0335769252        1.6340292183      -27.1836507081
 C        -5.9048780387        2.0248064790      -25.9718827689
 O        -5.8214000048        3.1090451894      -25.5050970487
 C        -7.0253539431        1.0440531069      -25.5040936416
 C        -7.3976922012        1.2995844001      -23.9830683792
 O        -6.5688129395        0.8727365594      -23.1947717270
 C        -8.6856580415        2.0222256084      -23.5062220090
 C        -8.4737493538        2.4353844933      -22.0537134427
 C        -7.2249357728        3.3412289991      -21.8605181535
 O        -6.6063642516        3.8450793732      -22.7698492285
 C        -6.7674422114        3.5098401368      -20.3431625116
 C        -5.6169856006        2.3482229957      -20.0514504633
 O        -4.9578206147        1.7900297502      -20.8970545322
 C        -5.1439874375        2.0209479593      -18.5350024352
 C        -3.6462869762        1.8231879629      -18.3211223833
 C        -2.8867831409        2.7856097298      -17.2345090507
 O        -3.6009879655        3.4530958225      -16.4893224668
 C        -1.3980560214        2.7002401853      -16.9576234005
 C        -1.2040777527        1.8198869205      -15.6053126409
 O        -0.4737007557        0.9187418443      -15.5499974322
 C        -2.0883684279        2.1407902397      -14.3943713073
 C        -1.5873434443        1.3740202878      -13.0924683174
 C        -2.7883675649        0.4507937868      -12.6824461913
 O        -3.9293725791        0.9419150192      -12.5694761965
 C        -2.4777274575       -0.9741635324      -12.2904649228
 C        -2.1078205867       -0.8721178823      -10.7303350970
 O        -0.9465347387       -0.7719342339      -10.3663454618
 C        -3.2935955960       -0.5593039366       -9.6153061035
 C        -3.0582964952       -1.5489106838       -8.4020571635
 C        -3.1575666245       -3.0122595236       -8.7391486509
 O        -3.1809205578       -3.2945543351       -9.9541091309
 C        -3.3925326778       -4.0532215670       -7.6569177641
 C        -2.0606346319       -3.9708757469       -6.9207635816
 O        -2.0378474552       -3.5770230127       -5.7454327645
 C        -0.7495219762       -4.0577410096       -7.6932081107
 C         0.4257469051       -4.2751004599       -6.7729777734
 C         0.2061227284       -5.5507590325       -5.9665371623
 O        -0.7207369661       -6.2695649982       -6.2092249515
 C         1.2535075227       -5.8470602256       -4.7274028171
 C         1.3430515154       -4.4732427957       -3.9402319270
 O         0.3232466109       -3.9788140363       -3.4453012883
 C         2.6953394683       -3.7854098760       -3.9918886350
 C         2.7753439914       -2.4298295853       -3.1884508691
 C         2.5700267057       -1.2603162826       -4.1038045068
 O         2.2572253800       -1.5392534964       -5.2525588542
 C         2.5281933207        0.1828432739       -3.4980444077
 C         1.3452146030        0.1064907371       -2.5881634449
 O         1.3453170247       -0.3538510956       -1.4212368354
 C         0.0676740438        0.6524833851       -3.1327023766
 C        -1.0469977837        0.5402784910       -2.0793933342
 C        -1.8365729610       -0.8014310205       -1.9822403251
 O        -1.9265610861       -1.5663647901       -2.8888950997
 C        -2.1830780965       -1.2617240210       -0.5329028700
 C        -3.5535541038       -2.2019427208       -0.5007865657
 O        -3.6907209689       -3.1302148126       -1.2323673677
 C        -4.6890738159       -1.9977336675        0.6605410875
 C        -5.0960831379       -3.3086392227        1.2501916138
 C        -3.9837554592       -3.9455857493        2.0544300608
 O        -2.9007483653       -3.4364578043        1.9591199057
 C        -4.2784536265       -5.2698622600        2.7827855786
 C        -4.0176516118       -6.3819190923        1.5357262639
 O        -5.0349031745       -6.8307364705        1.0351984583
 C        -2.5765145939       -6.7166936144        1.0166318294
 C        -2.6245563183       -7.5771780468       -0.2201160967
 C        -3.0014899325       -6.8466654060       -1.6161582037
 O        -2.2830974468       -5.8893149092       -1.8323458103
 C        -4.0915608330       -7.3316303950       -2.6549042300
 C        -4.7952440446       -6.0522134701       -3.2232073021
 O        -4.2453191726       -5.0802632819       -3.6654986149
 C        -6.3619758098       -6.0228810478       -3.1679407862
 C        -6.9812709612       -4.6832989406       -3.5721777502
 C        -8.2850601258       -4.3220458266       -2.8724010826
 O        -8.6475890717       -4.9187839905       -1.8876175073
 C        -9.1693005054       -3.2244910203       -3.5084409953
 C        -8.4681553082       -1.9402890725       -3.8655473247
 O        -7.2881216861       -1.8836609612       -4.1148805187
 C        -9.2732785782       -0.6416281243       -3.9620972381
 C        -9.7135098992       -3.7897612581       -4.9000990118
 C       -10.3655306975       -3.1133662450       -2.5401648009
 C        -3.2693913419       -7.9435600479       -3.9127401727
 C        -4.9887014729       -8.4043089953       -1.9842109491
 C        -3.2662395575       -5.5774718410        3.9671001616
 C        -5.7789810142       -5.5350089403        3.2036925683
 C        -0.8818736031       -2.1951916342       -0.1672186898
 C        -2.3906771224       -0.1567507272        0.4905997401
 C         3.8300517261        0.6625618840       -2.7928614799
 C         2.3711422006        1.2223477822       -4.7001482394
 C         0.5331922480       -6.9100036789       -3.8102173670
 C         2.5430903150       -6.4838580554       -5.2408050612
 C        -4.5076114421       -3.5576691248       -6.6195921546
 C        -3.6152482761       -5.4444704747       -8.3000903943
 C        -3.7898875293       -1.6916638048      -12.5031029920
 C        -1.3835995045       -1.6526593338      -13.0488800970
 C        -0.6928153401        2.0290421832      -18.2339025804
 C        -0.8089861730        4.1374017759      -16.6899485138
 C        -5.9828126766        4.8817508317      -20.1493594958
 C        -7.9891259485        3.3387691057      -19.4235357296
 C        -8.3319687567        1.1367743669      -26.3767420344
 C        -6.3945663174       -0.3952331541      -25.6460076677
 C        -1.4972769178        4.3409268316      -26.9315242689
 C        -0.4579594316        2.4931341391      -25.5265742306
 H        -0.2914192657        5.6718065860      -24.3854935712
 H        -1.3416273925        5.8769910986      -23.1417216971
 H        -1.8644852340        6.2035006849      -24.7429099818
 H        -3.2986774137        2.2748122142      -28.1848506228
 H        -4.1407359802        3.6703558647      -27.4676505133
 H        -4.6146214241        0.6515587828      -26.9877254883
 H        -5.7094077005        1.5504355908      -27.9869324886
 H        -9.6623440902        1.4552422510      -23.5463625870
 H        -8.7680215975        2.9686476270      -23.9564565448
 H        -8.3009680742        1.5924229586      -21.4441569198
 H        -9.3132171321        3.0093915011      -21.7309688989
 H        -5.6422704003        1.1700206776      -18.0996027048
 H        -5.3419061957        2.8357207984      -17.8332614710
 H        -3.0200453799        1.8701958619      -19.2053049739
 H        -3.6143730549        0.7367271331      -17.8884579288
 H        -3.1698309363        2.0986983708      -14.4737145345
 H        -1.8531512187        3.1987283863      -14.2386217084
 H        -1.4113350370        2.1804439566      -12.3503784688
 H        -0.7602801659        0.6980179082      -13.3150301481
 H        -4.2445818794       -0.4066480404       -9.8744432346
 H        -2.8560316580        0.4550826418       -9.3231444398
 H        -3.7512780403       -1.2715764968       -7.6045456285
 H        -2.0371023214       -1.3241539195       -7.8733660880
 H        -0.6394079335       -3.0928444240       -8.2091780349
 H        -0.8492172287       -4.7960427143       -8.4964470775
 H         0.3555390904       -3.3443853312       -6.1161530954
 H         1.4768738895       -4.2181645371       -7.2815155848
 H         2.9601790877       -3.4704930211       -4.9558740451
 H         3.5134312256       -4.4320535605       -3.6909244906
 H         3.6808081618       -2.3163795662       -2.5706625120
 H         1.9726510795       -2.3912379904       -2.4076827212
 H        -0.1644346172        0.2874439971       -4.0715348266
 H         0.2074203521        1.6303464073       -3.3817161759
 H        -1.7498431237        1.3870574865       -2.1915630126
 H        -0.6452117056        0.8101898652       -1.1167505887
 H        -5.4569545404       -1.4092454963        0.1872544286
 H        -4.3417686470       -1.3239135639        1.4506553286
 H        -5.4343624944       -4.0454031443        0.5343400889
 H        -6.0662832817       -3.1298899066        1.8966072469
 H        -1.9704156703       -7.2526692519        1.7541247494
 H        -2.1078949248       -5.7474134169        0.7749237719
 H        -3.5559337156       -8.1765090360        0.0128379644
 H        -1.6672731238       -8.1289181126       -0.4144467881
 H        -6.7732868297       -6.2185859705       -2.1494525867
 H        -6.6745728910       -6.7477141004       -3.8781711295
 H        -7.1736036932       -4.6268426827       -4.6362164047
 H        -6.2626616822       -3.7898325850       -3.5174522296
 H       -10.2087500606       -0.8336640027       -4.3040865817
 H        -8.7365937321       -0.0476497771       -4.7011219039
 H        -9.3949771320       -0.2980992989       -2.9712761326
 H        -8.8687453709       -3.9961257038       -5.5474027848
 H       -10.3733556183       -3.0401188423       -5.3798414543
 H       -10.2605690790       -4.7156833691       -4.7095977208
 H       -10.6879639831       -4.0860300594       -2.3450164233
 H       -11.0885604760       -2.4889864513       -2.9230109080
 H       -10.0256444625       -2.7537789320       -1.5970656472
 H        -3.9247508931       -8.3911296429       -4.6545147981
 H        -2.6044000770       -8.7486427127       -3.5326272595
 H        -2.7026849111       -7.1383440447       -4.3429229317
 H        -5.8805195026       -8.4980460205       -2.6121372034
 H        -5.0802024070       -8.1695136311       -0.9615287268
 H        -4.4223282527       -9.3610505717       -2.1675655864
 H        -3.3387060308       -6.5968918395        4.3113241301
 H        -3.4540557724       -4.9953016640        4.8321363356
 H        -2.3136820401       -5.3243328485        3.6661315594
 H        -6.0905453368       -4.7439056338        3.9082689815
 H        -5.9517746360       -6.5192888676        3.6485292869
 H        -6.4074001091       -5.4200863730        2.3344785310
 H        -1.2590041533       -3.2341816927        0.0408259488
 H        -0.3621818140       -1.7205852449        0.7191048536
 H        -0.1164040073       -2.2467401424       -0.9712457930
 H        -1.4572754665        0.3704497854        0.5770777793
 H        -2.7170417791       -0.6482429905        1.4607577649
 H        -3.1198781440        0.5986626104        0.1712565195
 H         3.9142562040        1.6754518092       -2.4988417973
 H         4.7003026487        0.4098122208       -3.4499942055
 H         4.0956667440        0.0526305555       -1.9680227481
 H         1.6487485833        0.8971725975       -5.4436770274
 H         3.3342706925        1.2365754728       -5.1745095632
 H         2.0557216799        2.2484680848       -4.4154252548
 H         1.0952788944       -7.2874320990       -2.9031605704
 H         0.4795681339       -7.7393930096       -4.4923853493
 H        -0.4756765267       -6.5274023623       -3.6338511881
 H         2.3337205057       -7.4561997648       -5.5255281103
 H         3.4037057489       -6.6104825787       -4.6260269489
 H         2.9678765309       -6.0056299404       -6.1230032455
 H        -5.1343502328       -2.7723805450       -6.9803345710
 H        -3.9549058473       -3.1980794363       -5.7042940134
 H        -5.1862447052       -4.3164960877       -6.5022301746
 H        -3.9095556185       -5.3925501265       -9.3804403712
 H        -4.1690939664       -6.0390125922       -7.5926323596
 H        -2.6936307180       -5.9794915140       -8.2983832918
 H        -4.7142358285       -1.4236072819      -11.9908205101
 H        -3.5350247255       -2.8156621416      -12.4007025452
 H        -4.0493675517       -1.6417426359      -13.5516649961
 H        -0.4218882320       -1.4975481807      -12.4975295313
 H        -1.1016176526       -1.0955876490      -13.9436353110
 H        -1.5162807807       -2.6917419753      -13.3365861805
 H        -1.1047802644        2.6227383451      -19.0732370456
 H        -1.1677518319        1.0555420821      -18.3330858547
 H         0.3377436238        1.9418050784      -18.1245205001
 H        -1.4462822875        4.5920871782      -15.8653364315
 H        -1.0269155591        4.8847676651      -17.4567078263
 H         0.2728241391        4.1443049704      -16.4780732530
 H        -6.7447065816        5.6714693721      -20.1878790922
 H        -5.3696959484        4.8813321572      -20.9744559604
 H        -5.4444216079        4.7798411442      -19.2628246443
 H        -8.8475803753        4.0245177518      -19.6981353693
 H        -7.6765236800        3.4945749068      -18.4328186423
 H        -8.3857940210        2.3310941653      -19.4319672540
 H        -8.6976738659        2.1463022996      -26.2671002010
 H        -8.9351504593        0.3278696856      -25.9364347909
 H        -8.2754801695        1.0171528123      -27.3981257750
 H        -6.3115037386       -0.7579084514      -26.6739450779
 H        -6.8282052918       -1.1775552881      -25.0078498799
 H        -5.3563724804       -0.3977090614      -25.4541102152
 H        -0.8536621971        5.1195834320      -26.6433717110
 H        -2.4114476793        4.7755933990      -27.2971654736
 H        -1.2331502468        3.6724700047      -27.7708334686
 H        -0.5956295474        1.7544984795      -24.7053465643
 H         0.4594529226        2.9333694362      -25.3055165327
 H        -0.2426731709        1.9530843563      -26.3716078917
 Na       -2.3459846734       -3.9352511181       -3.1800572838
 Na       -4.7015415982        2.4998935751      -23.3535477813
