232

 C        -1.3111804427        5.4192355239      -24.4533477072
 C        -2.1308924229        4.1210309961      -24.5128666974
 O        -2.8631148969        3.8408776234      -23.5834301623
 C        -1.9169096146        3.2212201434      -25.8199811505
 C        -3.1207123691        2.3443946503      -26.1777500614
 O        -3.3553444149        1.3889645078      -25.4771359228
 C        -4.0261387795        2.6325989713      -27.3191492824
 C        -5.4241153193        1.8980313282      -27.3781251634
 C        -6.0086300925        1.9964634122      -25.8877030594
 O        -5.7672191159        2.9971562617      -25.2500119734
 C        -7.1660616615        0.8826937181      -25.4958414551
 C        -7.3983893866        1.1702892034      -23.8547916824
 O        -6.5149723664        0.7288236564      -23.1573087489
 C        -8.6577216601        1.9165086704      -23.4998013873
 C        -8.6381350884        2.4141514151      -22.0104972740
 C        -7.4193712526        3.2905189794      -21.6644578042
 O        -6.6773803020        3.5681136523      -22.6000331960
 C        -6.8167418581        3.4437003004      -20.1992608759
 C        -5.4853820155        2.5208411815      -19.8797806052
 O        -4.9178012681        2.0756866270      -20.8351050682
 C        -5.0360242961        2.4221097815      -18.5248496778
 C        -3.5087177783        2.1653276912      -18.5091297591
 C        -2.8669470887        2.9148352116      -17.3146069578
 O        -3.4785585263        3.8071149820      -16.7208230019
 C        -1.3169687811        2.7471719064      -16.9283451922
 C        -1.1356935574        1.9349451160      -15.5232941899
 O        -0.4004932857        1.0315011358      -15.4722248266
 C        -1.9302697545        2.4334417267      -14.2758987406
 C        -1.7064935255        1.6263970904      -12.9891482181
 C        -2.8482888905        0.6412574593      -12.7305901600
 O        -4.0311463932        0.9761062114      -12.7462635834
 C        -2.5044667465       -0.9194610265      -12.2865636665
 C        -2.1941076855       -0.7072100413      -10.7293467676
 O        -1.2149729413       -1.2866870650      -10.2750559917
 C        -3.2322897586       -0.2362634615       -9.6680835371
 C        -3.2706273121       -1.2040655679       -8.3890610048
 C        -3.3421168027       -2.7096986795       -8.7523547794
 O        -3.1147758021       -3.2362185462       -9.8695575018
 C        -3.6390594726       -3.7494794110       -7.5992427284
 C        -2.2550458398       -3.9336383480       -6.7726281161
 O        -2.2295076125       -3.9758544171       -5.5585059089
 C        -0.9943496053       -4.0051360968       -7.6037275332
 C         0.3200354396       -4.2213256794       -6.8367912723
 C         0.1550704194       -5.5375289183       -6.0246743376
 O        -0.5751903809       -6.4363858062       -6.3120060347
 C         1.1361847861       -5.7578889169       -4.7271568825
 C         1.4082045750       -4.3555001299       -3.9534941469
 O         0.4985284666       -3.8421888803       -3.2713506851
 C         2.8607755894       -3.8964514596       -3.6745549996
 C         3.0184465574       -2.3730360669       -3.1110532536
 C         2.5274410068       -1.3594756125       -4.0722090226
 O         2.0881616707       -1.5660590420       -5.2091250163
 C         2.5284475498        0.0801580160       -3.5660058629
 C         1.2059192766        0.1465713108       -2.5326531607
 O         1.1331714111       -0.3774073056       -1.4156585640
 C        -0.0357353778        0.8781794180       -3.1083991341
 C        -1.1438272010        0.7095463232       -2.0831616142
 C        -1.6394715962       -0.7378665381       -1.8571023240
 O        -1.8217089818       -1.5593128497       -2.6944163248
 C        -2.1731681303       -1.2067615575       -0.3762981195
 C        -3.3528377642       -2.1776277576       -0.6015836176
 O        -3.4298421474       -2.9425844050       -1.5186773812
 C        -4.5087913399       -2.1289414946        0.4153194686
 C        -4.9693871481       -3.4708716194        0.9634239013
 C        -4.0331035389       -4.0435658348        2.0102676202
 O        -3.0309630119       -3.4331277699        2.3499402282
 C        -4.2679908736       -5.6035400403        2.5546161706
 C        -4.0089998221       -6.5220212823        1.2520038191
 O        -4.9587479386       -6.9524665969        0.6047364746
 C        -2.6485286288       -6.7470971984        0.8764729615
 C        -2.4841800527       -7.6074031121       -0.4268699717
 C        -2.7893397909       -6.7606675523       -1.6548822138
 O        -2.2596556637       -5.7315333256       -1.8214892217
 C        -3.8328589054       -7.3121757044       -2.6806975219
 C        -4.7978512752       -6.1208493847       -3.2916473235
 O        -4.2877696458       -5.2450104639       -4.0004683295
 C        -6.2344280412       -6.0307193018       -2.8453790730
 C        -6.8650092343       -4.7629273554       -3.4551165785
 C        -8.2653764378       -4.4393585880       -2.8593108804
 O        -8.6968200417       -4.9798301952       -1.8814626353
 C        -9.1769056509       -3.3637273634       -3.6165159711
 C        -8.3429324939       -2.0650039481       -3.8322477216
 O        -7.2038321757       -2.2190224171       -4.1726244285
 C        -8.8908046433       -0.5631601125       -3.5084012203
 C        -9.6156305166       -3.9465791264       -5.0186815596
 C       -10.3695775009       -3.0967598098       -2.7300899643
 C        -2.8944674956       -7.9535075991       -3.7886722634
 C        -4.8233376373       -8.3243405585       -2.1177474031
 C        -3.1950806812       -5.9407136631        3.5843951691
 C        -5.7310899889       -5.6799175472        3.0217610041
 C        -1.1181893240       -2.2295874461        0.2034041409
 C        -2.4237758855       -0.0667461908        0.6062256724
 C         3.7290712282        0.3139350025       -2.7029945066
 C         2.5755504379        1.1247000364       -4.6848683071
 C         0.6465435627       -6.8244664670       -3.7166396417
 C         2.4220478437       -6.1855195896       -5.4175508323
 C        -4.8347615291       -3.4240886610       -6.6618331407
 C        -3.7793334942       -5.1541005549       -8.2925341237
 C        -3.7210368543       -1.7552390884      -12.5037748113
 C        -1.1711506263       -1.5035717770      -13.0367340523
 C        -0.5837828424        1.8771099512      -18.0283165995
 C        -0.9386247825        4.2249870874      -16.6394855694
 C        -6.3077674740        4.9718212913      -20.2275206060
 C        -7.7700740944        3.2760572822      -19.0247072137
 C        -8.4360253602        1.0840591605      -26.3687134180
 C        -6.7656757469       -0.5931589224      -25.6247253450
 C        -1.5870984404        4.1517880516      -27.0945690832
 C        -0.7384230151        2.3271325394      -25.3743268160
 H        -0.3211183411        5.4376783461      -24.8563483720
 H        -1.2386506650        5.6915959359      -23.4367517007
 H        -1.6803703470        6.3485562518      -24.8486388435
 H        -3.5379462989        2.3868155806      -28.2591796440
 H        -4.2567826641        3.6456333489      -27.3958775599
 H        -5.4520003659        0.8713478053      -27.8172944281
 H        -6.1177240360        2.5121313758      -27.9705480250
 H        -9.5583169956        1.1977769439      -23.4335613778
 H        -8.8243999203        2.7176449983      -24.0770000218
 H        -8.4683071080        1.4879646505      -21.3743378394
 H        -9.6134345200        2.8613600997      -21.8467972763
 H        -5.6689799127        1.6249467046      -17.9650157258
 H        -5.2166783578        3.3710054523      -18.0348217441
 H        -3.0033714371        2.3935390112      -19.4550697017
 H        -3.2852596693        1.1166559969      -18.3067860847
 H        -2.9910771224        2.6330592019      -14.6400614627
 H        -1.6336879703        3.4660542591      -14.1399542291
 H        -1.7199485270        2.2727784518      -12.1383909556
 H        -0.7205993981        1.1390195798      -13.0990761212
 H        -4.1705279557       -0.0615152617      -10.1072054432
 H        -2.9240618849        0.8135032936       -9.2804335993
 H        -4.0544358811       -0.9017724896       -7.7591650515
 H        -2.3131906682       -0.9523252770       -7.6836420013
 H        -1.0604024352       -3.0184112855       -8.0827785213
 H        -1.0677406477       -4.6937577080       -8.4689898722
 H         0.3424299130       -3.4583405188       -6.1283800538
 H         1.1845068377       -4.1898057101       -7.4796531474
 H         3.4506716017       -3.9299051303       -4.6071977703
 H         3.3981594289       -4.5221545579       -2.9289894367
 H         4.0806565138       -2.1901382556       -2.9697717127
 H         2.6161099491       -2.1924494999       -2.1652779271
 H        -0.3641585905        0.3881648569       -4.1415939108
 H         0.1388485872        1.9924489929       -3.4211663144
 H        -2.0200653156        1.3441587098       -2.2751912371
 H        -0.8681374661        1.1493969495       -1.0920811795
 H        -5.3212679207       -1.6352295893       -0.1262205473
 H        -4.2957352914       -1.4385034075        1.1919584064
 H        -5.2778686448       -4.1365759195        0.2371077066
 H        -5.9191699681       -3.2911013198        1.5013203960
 H        -2.1638439307       -7.2323000385        1.7645722305
 H        -2.1271471002       -5.7076729704        0.8240372229
 H        -2.8970186483       -8.6628351055       -0.3692456017
 H        -1.3945983914       -7.7075206961       -0.4924348027
 H        -6.2592094109       -6.0583434266       -1.7857468995
 H        -6.8251464438       -6.8572024922       -3.2813279522
 H        -6.9560761862       -4.9106582262       -4.5582559656
 H        -6.2355985837       -3.9135648623       -3.3625433734
 H        -9.4538639342       -0.0975563055       -4.3367183827
 H        -7.8708784963       -0.0149058135       -3.4487846748
 H        -9.5041248521       -0.6697462225       -2.6216463986
 H        -8.7912399772       -3.6542145377       -5.6554191293
 H       -10.5732426339       -3.4127970443       -5.3646332090
 H        -9.8210316206       -4.9705777453       -5.0028856173
 H       -10.8476836318       -4.1146354337       -2.5845549663
 H       -11.1019817730       -2.4655669428       -3.3231596906
 H       -10.0493925045       -2.6508397737       -1.7367939191
 H        -3.5857236571       -8.2282709498       -4.6025325974
 H        -2.4049429479       -8.8623865213       -3.4664806989
 H        -2.0937776319       -7.2329024790       -4.0770989756
 H        -5.5164932546       -8.5713645632       -2.9493637936
 H        -5.3443902963       -7.8929439299       -1.3220871334
 H        -4.1676954611       -9.1589189011       -1.8758156950
 H        -3.3201224967       -7.0132219769        3.8810565244
 H        -3.3373073612       -5.3321607415        4.5447900342
 H        -2.1242133358       -5.7813583626        3.2588527746
 H        -5.9081941669       -5.1839752303        3.9656764151
 H        -5.8598443899       -6.7006779335        3.4221877876
 H        -6.4270560962       -5.5104499774        2.1970477976
 H        -0.3209249675       -2.3982995273       -0.4681767584
 H        -1.5450090988       -3.2703710226        0.2702232754
 H        -0.8501493847       -1.9215719236        1.1656783036
 H        -1.5150420576        0.4652625125        0.8243206068
 H        -2.6171543143       -0.4139219524        1.6702678353
 H        -3.2217198889        0.6371628777        0.2536770239
 H         3.7111572273        1.3224287536       -2.3391473198
 H         4.6799174299        0.3732194692       -3.2916272538
 H         3.9653472756       -0.3747696693       -1.8908431001
 H         1.6217855596        1.1406571734       -5.2481641593
 H         3.3841635374        0.9024346859       -5.4008147373
 H         2.7071063563        2.0918863773       -4.1636812754
 H         1.5271870904       -7.1880732487       -3.1936397840
 H         0.2087292456       -7.7263112392       -4.1197081891
 H         0.1267266976       -6.2207298183       -2.9804840104
 H         2.2116438605       -7.0679911328       -6.0244937508
 H         3.2634286525       -6.6201062937       -4.7948548551
 H         2.8949629472       -5.4845029217       -6.1195726104
 H        -5.3989908933       -4.3513331017       -6.5568679672
 H        -5.4419859096       -2.6110653896       -7.2074253114
 H        -4.6006183036       -3.1678448395       -5.6303754739
 H        -4.6227738048       -5.0883907707       -8.9726180699
 H        -3.8421960609       -5.9328606438       -7.5137853788
 H        -2.8923406140       -5.3731618134       -8.8806697159
 H        -4.5306682858       -1.1752246003      -12.2152514671
 H        -3.7526534200       -2.6463045169      -11.8642405204
 H        -4.0092363918       -1.9173902256      -13.5512353314
 H        -0.3806588160       -0.8092538945      -13.3223760027
 H        -1.4470220412       -2.0569540717      -13.9440334030
 H        -0.6233309274       -2.1836505188      -12.4020963007
 H        -0.6065068015        2.4681807589      -19.0049901582
 H        -1.1093266034        0.9150135823      -18.0504587265
 H         0.3813305114        1.7102507540      -17.6620013296
 H        -1.7639370092        4.7599785819      -16.2057853752
 H        -0.6978566179        4.7954986188      -17.5292306012
 H        -0.1370954973        4.2396068088      -15.9400398298
 H        -7.2496651879        5.4804021012      -20.5621652471
 H        -5.5010028310        5.0375838181      -20.9734709948
 H        -6.1560057366        5.2642705990      -19.1960241375
 H        -8.6489462265        3.8925727803      -19.2834594769
 H        -7.3975981355        3.5493844676      -18.0903677823
 H        -8.1370414239        2.2188581917      -18.9333232841
 H        -8.6850003384        2.1900752768      -26.4370043067
 H        -9.2065962101        0.3537850399      -26.0005649998
 H        -8.2839819912        0.6867662817      -27.3648995106
 H        -6.3807967508       -0.7992925042      -26.6310175899
 H        -7.6432934338       -1.2069382938      -25.3944951988
 H        -6.0326410896       -1.0243577349      -24.9995943681
 H        -0.5236328610        4.3964462599      -27.1106550762
 H        -2.2588109235        5.0239432862      -27.1103524064
 H        -1.9209934905        3.6280897509      -27.9962123458
 H        -1.0977213324        1.5079520444      -24.6235688653
 H         0.0360610550        2.8229588712      -24.7771253739
 H        -0.1729987352        1.8493344728      -26.1806820290
 Na       -1.9243950509       -3.7995517786       -3.3037168583
 Na       -4.6111405090        2.2512372071      -23.2555531312
