232

 C        -1.3981654879        5.3767666679      -24.5567516800
 C        -2.2361421138        4.1626649088      -24.5447962087
 O        -2.9003265115        3.8207711448      -23.5982806610
 C        -1.9691863010        3.1506288232      -25.8440064329
 C        -3.2407092771        2.2992072765      -26.1740821119
 O        -3.5647560226        1.3707215464      -25.4363080746
 C        -4.0740407386        2.7645571180      -27.4064713018
 C        -5.4206042209        1.9289121129      -27.3278088615
 C        -6.1338165848        1.9935135562      -25.9320486677
 O        -5.7747097003        2.7915668099      -25.1153174597
 C        -7.2241587040        0.8552717103      -25.5009012639
 C        -7.4598033869        1.0983740534      -23.9035388171
 O        -6.6394411742        0.7043198678      -23.0695806366
 C        -8.6244819794        1.9358581964      -23.3968433916
 C        -8.6080574080        2.2384682753      -21.8483320942
 C        -7.2920461957        3.0162607027      -21.6938976281
 O        -6.7492732364        3.6154511171      -22.6045225267
 C        -6.8875112402        3.5162500257      -20.2493670676
 C        -5.4473608949        2.6975655634      -19.9643525335
 O        -4.8379170227        2.2180311328      -20.9051435661
 C        -4.9528299940        2.4324086929      -18.4461201391
 C        -3.4521113951        2.2320977711      -18.3569588516
 C        -2.8022851446        2.9918623296      -17.2162748151
 O        -3.4653668741        3.8667488475      -16.6892724925
 C        -1.2961635106        2.7895395237      -16.8570754995
 C        -1.1685196150        2.0331977919      -15.4188490125
 O        -0.5327501851        0.9982468110      -15.3611557787
 C        -1.9900837196        2.5569773443      -14.2559792619
 C        -1.6799361310        1.7057916198      -12.9790151958
 C        -2.7904346683        0.6615713580      -12.8249437935
 O        -3.9797786110        0.9586091446      -12.8426721810
 C        -2.5170556546       -0.7400529742      -12.2945750830
 C        -2.2140308878       -0.8754220169      -10.6865433153
 O        -1.2082517978       -1.3647321178      -10.2710004676
 C        -3.2247467127       -0.1939970523       -9.7477753002
 C        -3.4011254359       -1.1486673143       -8.4762553800
 C        -3.4718648548       -2.6834233527       -8.7350660109
 O        -3.1176078245       -3.0808627779       -9.8215589043
 C        -3.6634738894       -3.7789172003       -7.5722312201
 C        -2.3239768578       -3.8529780212       -6.8124766809
 O        -2.4321202661       -4.0022289961       -5.5767095729
 C        -1.0398833010       -3.8328267857       -7.6109973580
 C         0.1396935932       -4.2337588224       -6.7431747411
 C         0.1022992377       -5.4866583542       -5.9202186872
 O        -0.5012936617       -6.4804932754       -6.2276197386
 C         1.2339759036       -5.6228241514       -4.7145745233
 C         1.4312541583       -4.3328561086       -3.8640379535
 O         0.5013172972       -3.7855294348       -3.2980775970
 C         2.8894319825       -3.9990597456       -3.6720061456
 C         3.0357576629       -2.4941381198       -3.0796435851
 C         2.4440279064       -1.4209992012       -4.0721333948
 O         2.0520738891       -1.7293251690       -5.1974575517
 C         2.4902089021        0.1500203874       -3.4408364862
 C         1.1990339514        0.1630099210       -2.6356107862
 O         1.1223245185       -0.3815219074       -1.5095368808
 C        -0.0777539269        0.9161733972       -3.1096108983
 C        -1.3106996711        0.7482310895       -2.0911189232
 C        -1.6588065384       -0.7465438900       -1.7755871871
 O        -1.5134518609       -1.4237531449       -2.7785358345
 C        -2.1182198928       -1.2894189307       -0.3231486416
 C        -3.4263492499       -2.1855019258       -0.5684558488
 O        -3.4582226608       -2.9685144964       -1.5112867348
 C        -4.6322659880       -2.1826859372        0.4372148383
 C        -4.9695848132       -3.6020874195        0.8944862482
 C        -4.0034663832       -4.0373230221        1.9900401304
 O        -3.1204124565       -3.4025465700        2.4307138976
 C        -4.2603100412       -5.5944625194        2.4648496712
 C        -4.0373420532       -6.4867057979        1.1219074026
 O        -5.0006439168       -6.9063016501        0.5506045945
 C        -2.4863639169       -6.9256501971        0.8157893397
 C        -2.3246460869       -7.5785666676       -0.5591504870
 C        -2.8247823607       -6.7044137689       -1.6796235221
 O        -2.2177255098       -5.6270925501       -1.9236027533
 C        -3.8514396190       -7.3624382511       -2.8205227251
 C        -4.6821843033       -6.1235403187       -3.2779995054
 O        -4.2017812340       -5.2226318414       -3.9395303901
 C        -6.2447671679       -5.9618103490       -2.7360316767
 C        -6.8922309046       -4.7755379405       -3.4630172627
 C        -8.2815625936       -4.4484023884       -2.8824949017
 O        -8.7225811544       -4.9543684215       -1.8353668563
 C        -9.1699072648       -3.3654920399       -3.6470805060
 C        -8.2069490583       -2.0796405529       -3.7975705798
 O        -7.0977335961       -2.0854576906       -4.3552520874
 C        -8.7515096068       -0.7525230147       -3.3599308717
 C        -9.5095671336       -3.9045696448       -5.0508062086
 C       -10.4482565189       -3.2541546627       -2.6994594632
 C        -2.7638732439       -7.9589764149       -3.7809773292
 C        -4.6790939840       -8.5466125239       -2.1649315551
 C        -3.2690050561       -6.0296984981        3.5000556912
 C        -5.7209561150       -5.6872633093        2.9187125754
 C        -0.9853501996       -2.2028796396        0.2694714339
 C        -2.4401719355       -0.1203131740        0.6434889831
 C         3.8270266748        0.2499940078       -2.6630601360
 C         2.4737095158        1.1266481453       -4.5628864382
 C         0.7238400885       -6.6862664028       -3.7810415964
 C         2.4468887939       -6.2413208987       -5.4342403917
 C        -4.7528288384       -3.2626831951       -6.6010493452
 C        -3.8819294580       -5.1808769045       -8.2420583595
 C        -3.6869561187       -1.6576956372      -12.6155130860
 C        -1.2597086635       -1.4447340180      -12.9720806152
 C        -0.5879249752        1.9898374957      -17.9599218480
 C        -0.7073323318        4.2128427808      -16.7413329222
 C        -6.3994557991        5.0546785076      -20.2139433463
 C        -7.9009266504        3.1467501013      -19.1192254388
 C        -8.4900236322        1.1902500686      -26.2517994595
 C        -6.7434465007       -0.5762181960      -25.6850458163
 C        -1.5604899168        3.9969829064      -27.0396374533
 C        -0.7937114939        2.2051896641      -25.5267579906
 H        -0.4014672373        5.3386307432      -25.0152589653
 H        -1.3687904465        5.7818815012      -23.5877574694
 H        -1.7913518980        6.2270866618      -25.0533545752
 H        -3.6010350874        2.5111629494      -28.2782217178
 H        -4.2871771319        3.8440045199      -27.5253553296
 H        -5.1905351746        0.8764086868      -27.4183922274
 H        -6.1303052367        2.1178424084      -28.0929329947
 H        -9.5924106972        1.4819092578      -23.5603793891
 H        -8.5310954407        2.9611301605      -23.8396117504
 H        -8.6967193222        1.3571074854      -21.3010437961
 H        -9.3384293589        2.9855936990      -21.5829191160
 H        -5.4116279572        1.4969166740      -18.1726329226
 H        -5.2591351229        3.1762192841      -17.7275575802
 H        -3.0433958737        2.5546738320      -19.3222754943
 H        -3.1210508816        1.1253470887      -18.3179855185
 H        -2.9801831837        2.6744873104      -14.6564542624
 H        -1.7595554363        3.6190537630      -14.1667729257
 H        -1.7888206125        2.2723795179      -12.0254444300
 H        -0.6505993030        1.3866591426      -13.1190697841
 H        -4.1234808935        0.1098544881      -10.2153044128
 H        -2.7537600267        0.7904583395       -9.4153836159
 H        -4.3816378566       -0.7942127769       -7.9399195943
 H        -2.6290259750       -0.8796035637       -7.7227966640
 H        -0.9406448677       -2.8476890965       -8.1288927772
 H        -1.0828598922       -4.5374301100       -8.4541337027
 H         0.4706184114       -3.3764070281       -6.1166688259
 H         0.9116331091       -4.4761552125       -7.5313152426
 H         3.4657086426       -4.1932321693       -4.5231732708
 H         3.3030994216       -4.6152995419       -2.8543749079
 H         4.0441281600       -2.2736945136       -2.8866411758
 H         2.5386038503       -2.5637740043       -2.1345798816
 H        -0.3681053046        0.6592738352       -4.1294498005
 H         0.1343979842        1.9641573370       -3.1503643016
 H        -2.2373175148        1.1734176540       -2.5799968391
 H        -1.2383097119        1.4480977830       -1.2580396917
 H        -5.4591409239       -1.7375968513       -0.0307408313
 H        -4.3327165718       -1.5247414038        1.2378095167
 H        -4.8584095466       -4.2649257229        0.0717686044
 H        -6.0848959460       -3.7556788214        1.0619134783
 H        -2.1453193919       -7.5732862715        1.6695581277
 H        -1.9372840985       -5.9492153056        0.9986723830
 H        -2.9097757629       -8.5731823391       -0.5714566629
 H        -1.2288783537       -7.8998527663       -0.7246626460
 H        -6.2242924040       -5.7333184476       -1.6791675601
 H        -6.8640381726       -6.7681431608       -2.8380397297
 H        -6.9291050471       -4.8636267381       -4.5285964559
 H        -6.2840784940       -3.8302012972       -3.2280816292
 H        -9.1514239134       -0.4170706200       -4.2896820841
 H        -7.9605269736       -0.0844220158       -3.1211917184
 H        -9.6054194955       -0.9986767718       -2.6790487593
 H        -8.5811119948       -4.0255926256       -5.6160951183
 H       -10.1537790212       -3.2203081561       -5.5400212275
 H       -10.1380170577       -4.8418222313       -4.9237908003
 H       -10.7455979711       -4.2913289433       -2.5082938023
 H       -11.2904829704       -2.7654225318       -3.1657628858
 H       -10.0925028533       -2.7735639705       -1.7390856937
 H        -3.2184601260       -8.2004024342       -4.7589177432
 H        -2.2487695699       -8.9134330413       -3.3823079925
 H        -1.9760260581       -7.2244386251       -3.8360356709
 H        -5.5744016255       -8.6965718793       -2.7380259678
 H        -5.0219037164       -8.2208761269       -1.2034693279
 H        -3.9380244626       -9.3498633233       -2.1751741317
 H        -3.4420637009       -7.1457139185        3.7430520042
 H        -3.3701399786       -5.4539546124        4.4340093853
 H        -2.2358749582       -5.9242049664        3.1784826889
 H        -5.9353607842       -5.0540652109        3.7809611204
 H        -5.8529290654       -6.6175808390        3.4610709866
 H        -6.3742576694       -5.6423989877        2.0673591292
 H         0.0088400221       -1.9143345972       -0.0965833656
 H        -1.0287672977       -3.1659856133       -0.2259859206
 H        -1.1296444721       -2.2728652739        1.3593440055
 H        -1.6638608240        0.6456685362        0.8262798486
 H        -2.4868973759       -0.5165662624        1.7074589368
 H        -3.4243020536        0.3302260847        0.3310300192
 H         4.1706639504        1.2622360508       -2.4946399514
 H         4.6778125214       -0.0944294287       -3.3198074670
 H         3.9134391865       -0.3216912190       -1.7703840807
 H         1.6838223619        0.9775277968       -5.3542259376
 H         3.4603924559        1.0377194879       -5.0470389756
 H         2.3851115157        2.1444848336       -4.0620004980
 H         1.5404724564       -6.9041319446       -3.0131155866
 H         0.5862391655       -7.6240516779       -4.2657442244
 H        -0.0294578906       -6.1944160513       -3.2039522205
 H         2.2778912632       -7.2646730686       -5.6535418223
 H         3.3260814634       -6.3148472605       -4.8554257485
 H         2.7360291127       -5.7903001128       -6.4015942956
 H        -4.9692730024       -4.0560932713       -5.8843095023
 H        -5.6094666634       -3.0153392470       -7.2906244154
 H        -4.4742129061       -2.3586190651       -6.0327841490
 H        -5.0169267733       -5.3230070546       -8.3494708849
 H        -3.4687537505       -5.8965635383       -7.5331658312
 H        -3.3639894846       -5.2874877654       -9.2013581026
 H        -4.7445786724       -1.3863782483      -12.3238830531
 H        -3.4048808450       -2.5449125178      -11.9935427085
 H        -3.7896745861       -1.8396722538      -13.6104874095
 H        -0.4557820090       -0.7651195980      -13.3610604386
 H        -1.6335858612       -1.9931143714      -13.8132231089
 H        -0.6618538613       -2.0761859566      -12.3430121019
 H        -0.3227359244        2.7161423381      -18.7348995171
 H        -1.1484617765        1.0870756458      -18.2695097367
 H         0.3191071219        1.7068542959      -17.4156229489
 H        -1.2835560189        4.9875033073      -16.1370380368
 H        -0.6336991091        4.6031546590      -17.7295566087
 H         0.2937743365        4.0974244826      -16.3233726688
 H        -7.3308745565        5.6483079972      -20.3191950806
 H        -5.8050731528        5.1027002347      -21.0447368157
 H        -6.0053528402        5.2718384416      -19.2452384081
 H        -8.8731699221        3.6222050876      -19.3868930634
 H        -7.5962876698        3.5714158620      -18.1874573487
 H        -8.0478168510        2.1095291391      -19.0002184497
 H        -8.8276601131        2.2518931066      -26.1342803486
 H        -9.2150935695        0.3179872086      -26.1214246595
 H        -8.2168738818        0.9933364679      -27.2909884797
 H        -6.0497845897       -0.6076888861      -26.4838236972
 H        -7.4582564121       -1.3193011196      -25.7848169219
 H        -6.2363921474       -0.9572530730      -24.8225528741
 H        -0.6357078510        4.4991951688      -26.8302183479
 H        -2.3989868908        4.6156059465      -27.3064343966
 H        -1.3985004724        3.3321832223      -27.9710305376
 H        -1.0528686201        1.6031704298      -24.6391208983
 H         0.2149454110        2.5714506099      -25.2576442738
 H        -0.6279839582        1.5086346288      -26.3262718390
 Na       -1.8027241565       -3.8246502270       -3.3014790419
 Na       -4.4893329394        2.2207897814      -23.2997256661
