232

 C        -1.6069064854        5.3486960912      -24.7738134705
 C        -2.2500380752        3.9491570646      -24.7644893353
 O        -2.9049452676        3.6134062955      -23.7997190531
 C        -2.0228273394        3.0206338074      -25.9929015969
 C        -3.3595337064        2.2548581079      -26.1469426499
 O        -3.7006335805        1.4036375465      -25.3356434975
 C        -4.3455924619        2.7405863589      -27.2861915287
 C        -5.6735662111        2.0127353884      -27.2924105619
 C        -6.3100810244        2.0086364676      -25.8692767323
 O        -6.1297740570        2.9006888828      -25.0812775515
 C        -7.3694324224        0.8819816236      -25.5026497929
 C        -7.4988761477        0.9193555836      -23.8808906345
 O        -6.5785729188        0.5170738024      -23.1882849391
 C        -8.6547521599        1.6346934627      -23.2760667243
 C        -8.4222057297        2.1037911699      -21.8378961598
 C        -7.1759730246        3.0255537482      -21.6424367661
 O        -6.6155694224        3.5461010914      -22.5916292480
 C        -6.6447463087        3.3766502114      -20.1033282983
 C        -5.2460489263        2.9856692881      -19.8269445171
 O        -4.5051209450        2.7566766809      -20.7661960497
 C        -4.8662908559        2.7594894100      -18.4616473214
 C        -3.3443156260        2.3352248317      -18.3018337127
 C        -2.7114470845        3.1805488758      -17.0849884557
 O        -3.3122932577        4.0723069188      -16.4827344729
 C        -1.2289123753        2.9130294487      -16.6520247927
 C        -1.3313926759        2.1375476840      -15.3478037665
 O        -0.9442672219        1.0048058079      -15.2946062556
 C        -1.8812380022        2.7948712529      -14.1259395694
 C        -1.7357357251        1.9101591218      -12.8333854449
 C        -2.7658900653        0.7591397064      -12.8112165667
 O        -3.9360997468        0.9634513362      -13.1340837174
 C        -2.3320668801       -0.6445609989      -12.3948971719
 C        -2.1980210959       -0.6971727941      -10.7733735526
 O        -1.1659565017       -1.1003708991      -10.3166388728
 C        -3.4240375627       -0.1059391405       -9.9780154347
 C        -3.6584064597       -1.0822994916       -8.7149392831
 C        -3.7032374494       -2.6203254014       -8.7487068732
 O        -3.6414887838       -3.2095154619       -9.8265448414
 C        -3.8968811503       -3.4814433265       -7.5327035940
 C        -2.4402751857       -3.7243081055       -6.7439274059
 O        -2.4245130605       -3.5579287897       -5.5243931085
 C        -1.1178309695       -3.9087712388       -7.4524567544
 C         0.0570536573       -3.9728091841       -6.4493264154
 C         0.0433794228       -5.3441127423       -5.7861921962
 O        -0.7223098191       -6.2202203300       -6.0788895925
 C         1.3185481999       -5.6599954861       -4.7661316522
 C         1.5346127455       -4.4194921395       -3.9340405133
 O         0.6043916588       -3.7175586321       -3.4836345506
 C         2.9225725155       -3.9000377762       -3.6603595803
 C         2.9587036459       -2.5278706843       -2.9287740444
 C         2.4038642525       -1.4856379921       -3.8656829490
 O         1.9398874842       -1.7423095189       -5.0008673418
 C         2.4134801158       -0.0375806109       -3.3750320629
 C         1.1182408694        0.1127937488       -2.4585583457
 O         1.0788494257       -0.4660082801       -1.3626823858
 C        -0.0519417542        0.9559556049       -2.9823363178
 C        -1.2638770327        0.7198943596       -1.9883658444
 C        -1.4788358357       -0.8193214956       -1.8335514493
 O        -1.2423971645       -1.6289443103       -2.6953475187
 C        -1.9864955940       -1.2974882668       -0.4767327704
 C        -3.2511211633       -2.2626098254       -0.7579919168
 O        -3.2125329253       -3.0031011305       -1.7176731111
 C        -4.4375776797       -2.3002230914        0.2885792875
 C        -4.9246393750       -3.7098448150        0.6903567851
 C        -4.0930543365       -4.2063680130        1.8671771713
 O        -3.3580707469       -3.5353189452        2.4964124115
 C        -4.3253004772       -5.6521476959        2.2613473483
 C        -3.8540148167       -6.5562759675        1.0510866050
 O        -4.6158034088       -6.7056025995        0.1299325402
 C        -2.3907572569       -7.0822728792        0.8455395763
 C        -2.2140704243       -7.8452816882       -0.5376564323
 C        -2.4958501052       -6.9613024218       -1.6917358057
 O        -2.0628864882       -5.8514552305       -1.6363878942
 C        -3.5456422228       -7.3693263866       -2.9267048580
 C        -4.4977195424       -6.1076358284       -3.1164770673
 O        -4.0603721863       -5.0876757221       -3.7449600476
 C        -5.9341611850       -5.9933160575       -2.6579988194
 C        -6.7660083013       -4.9805940711       -3.5570446071
 C        -8.1256047556       -4.5785033427       -2.9216034160
 O        -8.4010547626       -4.9336911683       -1.7714126101
 C        -9.0139213785       -3.5236972150       -3.6366633442
 C        -8.1550587779       -2.1170869871       -3.7625461399
 O        -7.2350090325       -1.9769774012       -4.5568099894
 C        -8.5454178886       -0.9011466213       -2.8946496346
 C        -9.1257373070       -4.0160867687       -5.1065158115
 C       -10.3802604371       -3.3083958323       -2.9652892853
 C        -2.9268516751       -7.6527539450       -4.3080395373
 C        -4.4251272486       -8.6052389286       -2.4772202411
 C        -3.3840457136       -5.9575902956        3.4038862441
 C        -5.7905277020       -5.9973084919        2.6650262951
 C        -0.9283363130       -2.2901884418        0.1561215391
 C        -2.3964835048       -0.1285931241        0.4018670977
 C         3.5366941784        0.5632654252       -2.4882450314
 C         2.2976773971        0.8179256708       -4.6658316718
 C         0.7958661345       -6.7243006698       -3.7756570381
 C         2.5268784667       -6.2826300603       -5.3579417322
 C        -4.8914350030       -2.8934563467       -6.5730321191
 C        -4.2893251012       -4.9397612368       -8.0191187766
 C        -3.5561663143       -1.6440443342      -12.7123194595
 C        -1.1060809644       -1.1666986442      -13.1732981696
 C        -0.6287535751        1.9402812928      -17.7546725615
 C        -0.4526489774        4.2638002733      -16.5152128008
 C        -6.6586099926        5.0136960761      -20.0536728910
 C        -7.6762205398        2.8131430341      -19.0747087083
 C        -8.6441664646        1.0996538552      -26.3128224421
 C        -7.0517425546       -0.6057784011      -25.7406676604
 C        -1.5988241839        3.6678548315      -27.3411941760
 C        -1.0643354733        1.9559871948      -25.4968930466
 H        -0.5000615201        5.2807744314      -24.6800877751
 H        -2.0471261698        6.0948780487      -24.1759178388
 H        -1.5902325755        5.8879827583      -25.7410184605
 H        -3.9247012004        2.7236875156      -28.2756485305
 H        -4.5130323814        3.8250528061      -27.1318496551
 H        -5.5103947394        0.9454115744      -27.6524335192
 H        -6.4273653032        2.4558415560      -27.9807716370
 H        -9.6011966449        0.9948499054      -23.2996167531
 H        -8.8546274689        2.5211609778      -23.7681757409
 H        -8.2672885433        1.1545376068      -21.2153145279
 H        -9.2286391317        2.8023248726      -21.4757354693
 H        -5.4674476128        1.9233078396      -17.9219791819
 H        -5.0776348162        3.6745587394      -17.8638226711
 H        -2.9077694416        2.3940940255      -19.2569679356
 H        -3.2276952097        1.2749616974      -18.1026612562
 H        -2.9131494569        3.3155501371      -14.0839978159
 H        -1.3045433636        3.7125479172      -14.0249258483
 H        -1.8118660911        2.6202737629      -12.0368929349
 H        -0.7456478509        1.4476863360      -12.7569061940
 H        -4.2735548987       -0.0033966868      -10.5572526812
 H        -3.0272758375        0.9454465079       -9.6736339834
 H        -4.6451203949       -0.8400299809       -8.3386021195
 H        -2.8877536510       -0.6916817714       -7.9484130668
 H        -0.9434255686       -3.1759780006       -8.2344353463
 H        -1.2076970502       -4.8585469919       -8.0011417952
 H         0.0498385884       -3.1615507703       -5.8195894967
 H         0.9304209241       -3.9336770250       -7.0610754299
 H         3.4812566035       -3.5955630180       -4.5644751886
 H         3.4952368665       -4.7846987203       -3.2442745778
 H         3.9911284274       -2.1879462568       -2.7149736500
 H         2.3624578044       -2.5746817342       -2.0170101802
 H        -0.4454067690        0.3969233037       -3.9770750992
 H         0.2360916265        2.0866185887       -3.0496130078
 H        -2.2258581928        1.1531906008       -2.3272212316
 H        -1.0264602031        1.1877290612       -1.0140980908
 H        -5.2746468535       -1.6694533589       -0.1251426557
 H        -4.0307801929       -1.8516333879        1.2186887937
 H        -4.9765207611       -4.4106215663       -0.0548530203
 H        -6.0117350032       -3.5803212876        0.9275508090
 H        -2.2279822751       -7.7447718153        1.7041676416
 H        -1.6116400247       -6.2929426021        0.9944940110
 H        -2.6478201489       -8.8289119756       -0.5684301445
 H        -1.2413008213       -8.2116601059       -0.5611216702
 H        -5.9680768166       -5.5760084699       -1.6113178092
 H        -6.4186621540       -6.9774945886       -2.5292330486
 H        -6.9102260631       -5.3225741770       -4.5988838365
 H        -6.1839726860       -4.0725041944       -3.4999642247
 H        -9.2045462279       -0.2920837635       -3.5119109325
 H        -7.5598234694       -0.3913529050       -2.7238925068
 H        -8.9531751398       -1.2579928392       -1.8712146118
 H        -8.1268913002       -4.1867267715       -5.4187614800
 H        -9.5534725197       -3.2095634599       -5.7262994494
 H        -9.7256130212       -4.9204832556       -5.1514881359
 H       -11.0131108694       -4.1197683083       -3.2930593452
 H       -10.8579113281       -2.4325784649       -3.3367399590
 H       -10.2070598887       -3.3028046718       -1.8601155288
 H        -3.5281403398       -8.3420615889       -4.8655232965
 H        -1.8857708378       -7.8876759554       -4.2793500489
 H        -2.9161296203       -6.7112277212       -4.7901898302
 H        -5.1614983704       -8.9311683804       -3.2183377851
 H        -5.0001552878       -8.2845370312       -1.6872151573
 H        -3.6227964534       -9.3246729099       -2.2659480350
 H        -3.2375811066       -7.0290904835        3.6283595255
 H        -3.5752610353       -5.3411663031        4.2655914922
 H        -2.4077366432       -5.7049595247        3.1000116170
 H        -6.1909070699       -5.2427524331        3.3465327394
 H        -5.9276855105       -6.9434715666        3.2050969595
 H        -6.3243405225       -6.0393468119        1.7245561407
 H        -0.8045965030       -2.2647400313        1.2232337437
 H         0.0708816395       -2.0100027702       -0.1878596758
 H        -1.2982985268       -3.2393660860       -0.0985505908
 H        -1.6089225995        0.4670821804        0.7414896431
 H        -2.9501959990       -0.4398225528        1.3032288237
 H        -3.0753898266        0.5398413277       -0.0929721854
 H         3.2548547459        1.5459028791       -2.1534325258
 H         4.5927274475        0.6237380011       -2.8844988014
 H         3.5666918536       -0.0343936385       -1.5976181917
 H         1.5121345487        0.3915715183       -5.2422736422
 H         3.2117995827        0.8541522769       -5.1957442939
 H         2.0323694654        1.8127369472       -4.3795532699
 H         1.5562362512       -6.8958045511       -3.0085765616
 H         0.5450645320       -7.6560154636       -4.2351417495
 H         0.0371147739       -6.1882907128       -3.2467752339
 H         2.1758945781       -6.8180569483       -6.2508660890
 H         3.1672033930       -6.9804822922       -4.7206432170
 H         3.1891080185       -5.4861897336       -5.8568441704
 H        -4.3750158345       -2.7992128276       -5.6255080330
 H        -5.7349206170       -3.6502173021       -6.3044847010
 H        -5.2384948659       -1.9738584083       -6.9530983530
 H        -4.6893151680       -5.5637329335       -7.1935011151
 H        -3.4129367578       -5.4699548561       -8.3306008562
 H        -4.9220525283       -4.8140664552       -8.8489176788
 H        -4.4164049364       -1.6961832386      -12.0689594206
 H        -3.2132886915       -2.7164564375      -12.6491022624
 H        -3.8137399277       -1.3732119615      -13.6882687327
 H        -0.1948656065       -0.7903153028      -12.7083748046
 H        -1.1827571981       -0.9771330543      -14.2311647312
 H        -0.8975994903       -2.2089348046      -13.0408700803
 H        -0.8704354877        2.4317971383      -18.7172470132
 H        -1.1502711504        1.0151957613      -17.6050490167
 H         0.3992597477        1.8392421583      -17.6993220479
 H        -0.6408795955        4.7083610451      -15.5297780204
 H        -0.7008430229        4.9675216485      -17.2951051038
 H         0.5935468871        4.0579973258      -16.5081742122
 H        -7.7180552678        5.4807497723      -19.9968623503
 H        -6.0171520255        5.3056682395      -20.8676140521
 H        -6.2498833176        5.1591623206      -19.0438826651
 H        -8.7004495432        3.3104555983      -19.1944921530
 H        -7.3437624161        3.0137523174      -18.0905353007
 H        -7.7384788647        1.7200892957      -19.2471306438
 H        -8.9163598131        2.1449725387      -26.1773514027
 H        -9.5274539511        0.5860582807      -25.8414519872
 H        -8.4443229721        0.8016887522      -27.2826973505
 H        -6.8906485948       -0.9476266168      -26.8116057992
 H        -7.8165734450       -1.3111838541      -25.2913298915
 H        -6.2419263475       -0.9203165774      -25.0677412325
 H        -0.5478455977        3.8747219611      -27.3495618233
 H        -2.2299003100        4.5344231341      -27.5542053865
 H        -1.5731963549        2.8920401259      -28.1132142416
 H        -1.3726425388        1.5033894689      -24.4855387766
 H        -0.0419362773        2.3474666260      -25.3087431017
 H        -1.0289179865        1.1070098903      -26.1628734728
 Na       -1.9187210943       -3.8471334647       -3.3046184374
 Na       -4.7660507658        2.0797913542      -23.0951283746
