232

 C        -1.6900017359        5.2224141222      -24.9636534207
 C        -2.3271238328        3.8818257329      -24.8412267150
 O        -2.9379773395        3.6147766186      -23.8238941631
 C        -2.0632486389        2.8047645129      -25.9688880422
 C        -3.5616123861        2.0174683966      -26.2281377566
 O        -4.0007300500        1.3522445454      -25.3365097153
 C        -4.4919423447        2.6184522450      -27.3798635138
 C        -5.8888884401        1.9183148975      -27.4217482332
 C        -6.5380996382        1.9620213314      -25.9904872743
 O        -6.4191539335        2.9093336797      -25.2253302736
 C        -7.3977602039        0.7906203684      -25.5127596834
 C        -7.4932733834        0.8188620497      -23.8620685536
 O        -6.4881542199        0.5263684108      -23.2713079150
 C        -8.6274939389        1.6226310566      -23.1654974213
 C        -8.4123611385        2.0414228874      -21.6725461083
 C        -7.1591441592        2.9849770281      -21.4670790928
 O        -6.6168403454        3.5018334310      -22.4050515500
 C        -6.7173023775        3.3165619835      -20.0104178115
 C        -5.2206019229        3.0284874739      -19.9101199261
 O        -4.3760767333        2.8378599053      -20.7551454385
 C        -4.8070453114        3.0105109868      -18.4051569081
 C        -3.3947015697        2.5700379865      -18.2131472120
 C        -2.7502632590        3.3160613942      -17.0239519372
 O        -3.2198052079        4.2476224869      -16.4312104665
 C        -1.2022865109        2.9068948344      -16.5422745368
 C        -1.2522695929        2.0987045601      -15.2270153427
 O        -1.1736430993        0.8866465232      -15.2903291363
 C        -1.6255367261        2.7692942759      -13.9389849582
 C        -1.7824823816        1.8482334909      -12.7112776912
 C        -2.8104747814        0.8000011451      -12.8854815380
 O        -3.9212995957        1.0628060188      -13.2730931463
 C        -2.3752593613       -0.6818111520      -12.4347635648
 C        -2.2652567152       -0.6282472516      -10.9140496643
 O        -1.1506020204       -0.7600466981      -10.3625693212
 C        -3.5357568437       -0.3561872502      -10.0492975451
 C        -3.5249551801       -1.0604362597       -8.7195871020
 C        -3.7886926111       -2.5402005735       -8.8253041161
 O        -3.8784123986       -3.0268228675       -9.9559042153
 C        -3.9850656766       -3.3260463311       -7.5346524595
 C        -2.5715088053       -3.3228998009       -6.7037432236
 O        -2.4620464983       -3.0108897676       -5.5367875261
 C        -1.3382263587       -3.9040017461       -7.3921790983
 C        -0.0148813791       -3.9911808058       -6.5503506522
 C         0.0301135483       -5.3804723104       -5.7732010283
 O        -0.8788516926       -6.1833205584       -5.9554370241
 C         1.2028916213       -5.6682667586       -4.7557277179
 C         1.5312479357       -4.4301878278       -3.8092830041
 O         0.5783861931       -3.8812702641       -3.3365662164
 C         2.9090069405       -3.9008180830       -3.4728699100
 C         3.0213223100       -2.5008950223       -2.8111779909
 C         2.5307661722       -1.4199491020       -3.7819182996
 O         2.0505125367       -1.7636753595       -4.8310497751
 C         2.4380384375        0.0998938082       -3.4312413726
 C         1.1577076535        0.1639343507       -2.5125342195
 O         1.0923722550       -0.3350371055       -1.4259375503
 C        -0.1463500065        0.8834676225       -3.0438127973
 C        -1.3014470785        0.6641450050       -2.0605207200
 C        -1.4921851489       -0.8556467162       -1.9118416519
 O        -1.3861108592       -1.6311145993       -2.8500131106
 C        -1.9895143448       -1.4407657485       -0.4432426712
 C        -3.3628888702       -2.2671079326       -0.7947622187
 O        -3.3823779410       -3.0970720070       -1.6525680943
 C        -4.6001840618       -2.2210920138        0.2499609473
 C        -4.9596639308       -3.6914823918        0.5662833523
 C        -4.1356289312       -4.2593761832        1.7198336082
 O        -3.3916270649       -3.5088343539        2.3870744635
 C        -4.2297906907       -5.8172913045        2.0970542455
 C        -3.7514955446       -6.6014128504        0.8789329685
 O        -4.4241535615       -6.5338701265       -0.1443042711
 C        -2.3751758365       -7.2453099824        0.7604316465
 C        -2.3506100676       -7.8841290461       -0.5870481233
 C        -2.5584485899       -6.9883830650       -1.7473621023
 O        -1.6881224853       -6.0590301431       -1.8137554813
 C        -3.5443476121       -7.2708754015       -2.7937164563
 C        -4.4303220048       -5.9363766614       -3.0551119394
 O        -3.9267224009       -4.9644690287       -3.4824199256
 C        -5.9101223321       -6.0669200629       -2.7315334080
 C        -6.6861158588       -5.1155515717       -3.6141972799
 C        -7.9432148682       -4.5319745731       -2.8735512510
 O        -8.2074310773       -4.7210590100       -1.7385276273
 C        -8.8959141612       -3.5616036272       -3.7808425990
 C        -8.1023297708       -2.1911618970       -3.7779997346
 O        -7.1908082072       -1.9710133973       -4.5229422086
 C        -8.3659434383       -1.2908610317       -2.5643385981
 C        -9.0481727676       -4.0486596465       -5.2514952070
 C       -10.3043131253       -3.4637457705       -3.0411255295
 C        -2.5954461535       -7.3922412342       -4.0212955055
 C        -4.3778802782       -8.5886256643       -2.6178000915
 C        -3.4423044864       -6.1219567771        3.4450356949
 C        -5.6776992947       -6.3023110245        2.3359958909
 C        -0.9854618554       -2.3572687002        0.3659098596
 C        -2.2485971356       -0.3289973345        0.5736138996
 C         3.6661945938        0.5568853262       -2.6245469176
 C         2.3200497747        1.0722049962       -4.6909662403
 C         0.6773316867       -6.7512345786       -3.8264470954
 C         2.4131887843       -6.1143339397       -5.6719801277
 C        -5.0523429528       -2.7190159400       -6.5471995551
 C        -4.2335845751       -4.8639935114       -7.7397913220
 C        -3.3879127030       -1.7254571323      -12.9432231658
 C        -0.9343611685       -1.0578545927      -12.8637660264
 C        -0.3593166756        2.0501841272      -17.6394727580
 C        -0.4529097117        4.2936536540      -16.4006048856
 C        -6.8436992338        4.9460255569      -19.9143529932
 C        -7.6376681372        2.7263946940      -18.8586535783
 C        -8.8672230724        1.1659363673      -26.0333599161
 C        -6.8876948125       -0.6220672341      -25.9407406711
 C        -1.5783324726        3.4329314456      -27.2705420381
 C        -0.9454379156        1.8805055011      -25.4464010102
 H        -0.6573871521        5.2276193737      -24.8242172170
 H        -2.2429374436        5.9195625754      -24.3373191361
 H        -1.6745794014        5.7506812282      -25.8905508644
 H        -4.0062442063        2.6065725364      -28.4018928938
 H        -4.5073581095        3.6696800109      -27.1656172875
 H        -5.7076578371        0.9010581513      -27.6436488034
 H        -6.6156846275        2.2710107077      -28.1386862544
 H        -9.6113123906        1.2147233297      -23.2719246366
 H        -8.7303960844        2.6716988505      -23.6164909192
 H        -8.3395434233        1.1751442404      -21.0833520110
 H        -9.2273410739        2.6463439968      -21.3360648809
 H        -5.3369520690        2.3092123090      -17.8580167576
 H        -4.9346245343        3.9289630023      -17.8097023754
 H        -2.7504280358        2.6963098058      -19.1418522947
 H        -3.3150049063        1.4789706978      -18.1464623489
 H        -2.5243974073        3.2838780970      -14.0526372908
 H        -1.0350993918        3.6763625844      -13.6789010332
 H        -2.1152703261        2.5678709329      -11.9227973793
 H        -0.8656222325        1.4382474470      -12.2948710457
 H        -4.4912127787       -0.6457631493      -10.6517775483
 H        -3.4952578958        0.6712251106       -9.8404067371
 H        -4.1078604545       -0.5226028916       -7.9592678761
 H        -2.4627111954       -0.9576146999       -8.5307136271
 H        -1.0958697603       -3.2945060825       -8.2838958682
 H        -1.5950353329       -4.8883298472       -7.8069839885
 H         0.0330972825       -3.0285914211       -5.9139696772
 H         0.8026338744       -3.9431189523       -7.3118108439
 H         3.5463074630       -3.6864794352       -4.3230680070
 H         3.4056124657       -4.7015663750       -2.9708243541
 H         4.0807045182       -2.3784399759       -2.7567917585
 H         2.5635160655       -2.4654102468       -1.8538640710
 H        -0.5273462329        0.5452255881       -3.9102488985
 H         0.0217023675        1.8894604230       -2.9768828102
 H        -2.1803645517        1.2072990249       -2.4853191507
 H        -1.0084035565        1.0957602267       -1.0872777593
 H        -5.3380145983       -1.6638193954       -0.2503821624
 H        -4.2963123125       -1.7925423686        1.1679805615
 H        -4.9371239985       -4.3788110160       -0.3867260501
 H        -5.9707543521       -3.7327175543        0.9168749723
 H        -2.1685095729       -7.8710834652        1.6617265812
 H        -1.6859760687       -6.3815571186        0.8683005408
 H        -3.0333313881       -8.7467283210       -0.5968326720
 H        -1.4558791303       -8.5874543675       -0.6668997801
 H        -6.0591183611       -5.8829577347       -1.7210291685
 H        -6.3113466385       -7.0696202206       -2.8194923543
 H        -7.0524455937       -5.6594125586       -4.4744590573
 H        -5.9737888720       -4.3037351290       -3.8715302642
 H        -9.4479229236       -1.0815278948       -2.5984521871
 H        -7.7141338451       -0.4124146045       -2.6429643305
 H        -8.0352403363       -1.8268834987       -1.7386116003
 H        -8.3793169224       -3.4452206834       -5.9146833785
 H       -10.0928131426       -3.8853795377       -5.5634488918
 H        -8.7161275602       -5.0690594264       -5.2713681125
 H       -10.7994355315       -4.4818733537       -3.1021648810
 H       -11.0120364278       -2.7318731830       -3.5719666339
 H       -10.0961541810       -3.1918868426       -2.0073843978
 H        -3.1606886766       -7.5364704252       -4.9616708566
 H        -1.9689408158       -8.2465683484       -3.7791623430
 H        -1.8608483685       -6.5524353026       -4.1467163515
 H        -5.1144388985       -8.5471487264       -3.4092146064
 H        -4.9514896923       -8.4983836741       -1.6503452938
 H        -3.7150653960       -9.4114669506       -2.7678598731
 H        -3.4509508976       -7.1745657595        3.6844953884
 H        -3.8037947141       -5.4682984372        4.2804350450
 H        -2.2973685600       -5.9836144830        3.3908247785
 H        -6.1730967876       -5.8569290978        3.2200055505
 H        -5.6364814814       -7.3986299132        2.4419332893
 H        -6.2492865449       -6.1474006808        1.3911234739
 H        -1.5549000234       -3.1456423449        0.8403357479
 H        -0.6262824575       -1.7485104045        1.1909454932
 H        -0.2317221233       -2.9143317785       -0.1987010893
 H        -1.3264879137        0.3450720875        0.6490099081
 H        -2.5483421463       -0.7293377459        1.5442141868
 H        -3.0756249004        0.4195815982        0.3949456438
 H         3.4833842564        1.4379528976       -1.9583948677
 H         4.4678525231        0.7485672301       -3.2859275930
 H         4.0507915378       -0.2312505322       -1.9218439267
 H         1.2916331848        0.8280518531       -5.0216435731
 H         3.1351510327        0.7960251354       -5.4107034444
 H         2.4072473830        2.1508016074       -4.4483262386
 H         1.3994860779       -7.2008823794       -3.1579042325
 H         0.2699591172       -7.4873296442       -4.5597899847
 H        -0.1449492458       -6.3308058332       -3.2147726892
 H         2.2318255927       -6.9566934807       -6.3505832669
 H         3.2578862906       -6.3284256152       -5.0259547452
 H         2.6251774710       -5.3055904762       -6.3137967533
 H        -4.6110167998       -2.1655440524       -5.6929832092
 H        -5.5256791812       -3.4711963750       -6.0032410651
 H        -5.6968307741       -2.1373068295       -7.2250397049
 H        -3.5424423894       -5.4203110077       -7.1833961726
 H        -4.1086014631       -5.2028573177       -8.7837797318
 H        -5.3053526110       -5.0101356127       -7.5275873694
 H        -4.3331814184       -1.4304039562      -12.5530287320
 H        -3.2530319101       -2.5580469273      -12.3269263488
 H        -3.3401574621       -2.0402522611      -14.0615615944
 H        -0.1401296620       -0.6928450933      -12.2303602310
 H        -0.7804099919       -0.9146001807      -13.9381875457
 H        -0.8430977848       -2.1555874095      -12.8095139376
 H        -0.3075524798        2.5948007264      -18.5787110227
 H        -0.8769675352        1.0739848276      -17.7049178395
 H         0.6967545253        1.9027982249      -17.2584631367
 H        -1.1836815441        4.9395528194      -16.0236747326
 H        -0.1612448821        4.5976182547      -17.4083310465
 H         0.3827861449        4.4082099509      -15.7186488494
 H        -7.7886815215        5.1135297193      -20.3013265180
 H        -6.0371918558        5.3131168413      -20.5989115868
 H        -6.8517609866        5.2648488176      -18.8693331087
 H        -8.6204956726        2.7375841960      -19.1697587409
 H        -7.5437174449        3.3682545479      -17.9486805262
 H        -7.3249844756        1.7071905318      -18.6625628520
 H        -9.0982718215        2.1860085393      -25.6852246491
 H        -9.5900688934        0.6551525437      -25.4418468465
 H        -8.9624109581        1.0079814738      -27.1676539765
 H        -7.2941445133       -0.8865213360      -26.8678392382
 H        -7.2567224850       -1.4127282701      -25.3466929291
 H        -5.8214803873       -0.7437579424      -25.8745626211
 H        -0.5810130447        3.9328104579      -27.2375828283
 H        -2.2939936422        4.2166855088      -27.5396778032
 H        -1.3959583240        2.6731524901      -27.9779531641
 H        -1.2049444298        1.0822186596      -24.7616034482
 H        -0.1861035976        2.4849000350      -24.9651722702
 H        -0.4737495904        1.2936158526      -26.2726726618
 Na       -1.7547838631       -4.1157551056       -3.3369379767
 Na       -4.8115633211        2.2683539804      -23.2041642340
