232

 C        -1.7166704498        5.2009355989      -25.0377900989
 C        -2.3539616012        3.8489791776      -24.8245842487
 O        -3.0307825740        3.6102557040      -23.8488965900
 C        -2.2010972404        2.7025781299      -26.0211465568
 C        -3.5831071168        2.1010469058      -26.1693485175
 O        -3.9952111749        1.2684358748      -25.3763921142
 C        -4.5344242458        2.4511440772      -27.3011506560
 C        -5.9153570190        1.7730952055      -27.3380247230
 C        -6.6155847262        1.9898434801      -25.9402118345
 O        -6.3693381399        3.0420477579      -25.3994483768
 C        -7.5645465623        0.7621759548      -25.4073685921
 C        -7.3785660202        0.9744922796      -23.8320479842
 O        -6.4627026054        0.4819954425      -23.2449300113
 C        -8.5051996393        1.6849844529      -23.2134450517
 C        -8.3015908096        1.8548493449      -21.7692515352
 C        -7.2246590895        2.9001881121      -21.4353898271
 O        -6.6443925333        3.4798167031      -22.3723316732
 C        -6.8423278653        3.3317719135      -20.0562969980
 C        -5.2125611084        3.0262638999      -19.7762348002
 O        -4.6316970912        2.8335459945      -20.7979733995
 C        -4.7076540251        3.0388685190      -18.3761663056
 C        -3.2552472122        2.6383927303      -18.1327962265
 C        -2.5001884185        3.3583182390      -17.0190245196
 O        -3.2002099134        4.1662105623      -16.3833073050
 C        -1.0993238733        3.0941411754      -16.5695209249
 C        -1.3627769806        2.0786292525      -15.2205999017
 O        -1.2730363178        0.9271622880      -15.3812980558
 C        -1.5619731049        2.8259580100      -13.8480650989
 C        -1.7010400654        1.9481135274      -12.6254162656
 C        -2.7081687107        0.7601253906      -12.8869481568
 O        -3.8236915594        0.9059682594      -13.3299093012
 C        -2.3670722248       -0.7308291221      -12.3944223875
 C        -2.3380302719       -0.6279220953      -10.8705324657
 O        -1.2752282682       -0.5751432077      -10.2617212485
 C        -3.6116716209       -0.4100194105      -10.0761075937
 C        -3.4282967006       -0.9631869178       -8.6750478898
 C        -3.7981263767       -2.4942449447       -8.7025647169
 O        -4.0179724118       -3.0388149062       -9.7980102226
 C        -3.9471740366       -3.3651098649       -7.3965204743
 C        -2.5295740753       -3.2626552713       -6.6576771738
 O        -2.4968486969       -2.7078905982       -5.5437481952
 C        -1.3133980771       -3.8387423578       -7.4389827031
 C        -0.0812826968       -4.0363348726       -6.5902217649
 C        -0.1515639329       -5.2914590534       -5.7338780374
 O        -0.9007509616       -6.1790116438       -5.9846192446
 C         1.1479818599       -5.6127988341       -4.8003066153
 C         1.4777757631       -4.3767482325       -3.8164956404
 O         0.5525367431       -3.8954161105       -3.1264469108
 C         3.0081709253       -3.8715683613       -3.4036053718
 C         3.0108858370       -2.3905388674       -2.8681350731
 C         2.4588441682       -1.4265041148       -3.8482006265
 O         2.0878422964       -1.7780062619       -4.9945245862
 C         2.4380171864        0.1165868321       -3.4219977257
 C         1.1945996183        0.2555481106       -2.5027735848
 O         1.1882091384       -0.3189162858       -1.4077585865
 C        -0.1430961734        0.8762468567       -3.0929091553
 C        -1.2859064774        0.5228190679       -2.0935014576
 C        -1.5960250855       -0.9512466735       -1.8059486013
 O        -1.4902212149       -1.7814633136       -2.6816318801
 C        -2.1563551803       -1.4442055504       -0.3634543858
 C        -3.3442180939       -2.3673794233       -0.6677768836
 O        -3.3412478952       -3.0990337824       -1.6286594812
 C        -4.6193256105       -2.2929424924        0.2091268770
 C        -4.9977989196       -3.7093163399        0.6286175691
 C        -4.1742477713       -4.2600998961        1.7983658932
 O        -3.3623012618       -3.6011899755        2.3605999891
 C        -4.3037815116       -5.8343080688        2.0264252800
 C        -3.6913763765       -6.4260607655        0.8001571259
 O        -4.3441726304       -6.4526353202       -0.2106772735
 C        -2.3307607443       -7.3559254108        0.7677607271
 C        -2.1612302824       -8.0693977333       -0.5126763157
 C        -2.4074566980       -7.0091927113       -1.6819903834
 O        -1.6410519032       -6.1072979213       -1.8270043141
 C        -3.5047351524       -7.3064967091       -2.8934865473
 C        -4.4104412181       -6.0529605271       -3.0196065548
 O        -3.9284143450       -4.9420571627       -3.3891209372
 C        -5.8932180120       -6.0644722071       -2.7761247374
 C        -6.7241981686       -5.1269285265       -3.6616237595
 C        -8.0134200912       -4.5704519350       -2.9900582084
 O        -7.9478720772       -4.6132496226       -1.7599510602
 C        -8.8879877661       -3.6569605915       -3.7889351419
 C        -8.0675175032       -2.2974595755       -3.6581767451
 O        -7.2797404904       -1.9801757744       -4.5209800906
 C        -8.2860174451       -1.3945282963       -2.3764621660
 C        -9.0153154395       -4.0510274068       -5.2966546757
 C       -10.2626950515       -3.4716196587       -3.1539282933
 C        -2.5575079728       -7.3815515505       -4.1220801022
 C        -4.3829578541       -8.5120371608       -2.7050956428
 C        -3.4483479107       -6.1105074006        3.2616072338
 C        -5.7430112145       -6.3115659896        2.1859355576
 C        -1.0219734143       -2.4230981585        0.0508087199
 C        -2.3249014221       -0.3250837956        0.6415580221
 C         3.7483507006        0.5043493280       -2.6398599984
 C         2.4084955802        1.0363252716       -4.6354449412
 C         0.8597543611       -6.8097630603       -3.8970697929
 C         2.3379149037       -5.9330999516       -5.7448110221
 C        -5.1506895764       -2.5701397266       -6.7514573850
 C        -4.2512958636       -4.8206819986       -7.7037095782
 C        -3.3526933235       -1.7147208773      -13.0232789686
 C        -0.8905018893       -1.0421155345      -12.9432035436
 C        -0.3569828002        2.1347710435      -17.5154444333
 C        -0.2789781673        4.3587914481      -16.2312671577
 C        -6.9512241158        4.9115745356      -19.8829432360
 C        -7.6362001117        2.7076171593      -18.8818753429
 C        -8.9958409956        1.0223190203      -25.9682408792
 C        -6.9326346612       -0.4617926754      -25.9276739605
 C        -1.6235950330        3.3590850747      -27.3263000034
 C        -1.1964319200        1.7145666706      -25.4131026250
 H        -0.6222573184        5.1793508984      -25.1147219599
 H        -2.0644220435        5.8135319398      -24.2171287232
 H        -1.8744184993        5.8795345200      -25.9010565671
 H        -3.9992745442        2.2930384333      -28.3321862134
 H        -4.6948042130        3.5451549729      -27.3322793594
 H        -5.9226780772        0.7737711137      -27.7302835798
 H        -6.5068068677        2.3653890213      -28.0153142672
 H        -9.4968565746        1.0973324746      -23.3628089738
 H        -8.7672323116        2.5960263795      -23.5394663345
 H        -8.0152120820        0.8824320318      -21.3128558063
 H        -9.2015163325        2.1748852538      -21.3067605269
 H        -5.3447532326        2.5231483551      -17.5949017140
 H        -4.7462732672        4.0503883632      -18.0365117082
 H        -2.6548384531        2.6557130708      -19.1078105499
 H        -3.2345357056        1.5641550173      -17.9705315551
 H        -2.3252033370        3.6028643362      -13.9413347080
 H        -0.7697039644        3.4881398997      -13.6561478101
 H        -1.9691819443        2.5244936487      -11.7234382779
 H        -0.6677561912        1.5821809482      -12.3799109015
 H        -4.2990789864       -1.1011760640      -10.4925168807
 H        -4.0191484773        0.5939887424      -10.0878951731
 H        -4.0276707083       -0.4737575702       -8.0837509709
 H        -2.3670484922       -0.8492175451       -8.3872447313
 H        -1.1009656184       -3.1214681261       -8.2283036424
 H        -1.6057759034       -4.7743501472       -7.9636501287
 H         0.0753691608       -3.0911900460       -5.9885102594
 H         0.8350020948       -4.2118991431       -7.2684714249
 H         3.7488612256       -3.9025138335       -4.2257041651
 H         3.3785763471       -4.5724656790       -2.6902598204
 H         4.0376830912       -2.0884702201       -2.4711429724
 H         2.2471602636       -2.4364605493       -2.0673035983
 H        -0.4160732294        0.2854047561       -3.9510606222
 H        -0.1323804526        1.9156492064       -3.1673434950
 H        -2.1695830068        0.9555634551       -2.5204388630
 H        -1.0056606198        1.0261382531       -1.1645742226
 H        -5.3054156398       -1.8117071201       -0.5220101755
 H        -4.4249952564       -1.7073387181        1.0980599270
 H        -5.0394889985       -4.3562747539       -0.2911493552
 H        -6.0496364474       -3.6940376751        1.0322001107
 H        -2.3968724843       -7.9760114070        1.6126066250
 H        -1.5123137850       -6.6964311122        0.9721487722
 H        -2.8226319922       -8.9622497204       -0.5721647832
 H        -1.2687429047       -8.6494454238       -0.5132846947
 H        -5.9919688118       -5.7810996620       -1.7218264171
 H        -6.3883558738       -7.0919547133       -2.7616373958
 H        -6.9099361312       -5.6433843687       -4.6575678721
 H        -6.1215302187       -4.2651309089       -3.7506978297
 H        -9.2653776071       -1.2600293182       -2.1602995557
 H        -7.7830112749       -0.4805466096       -2.5831368047
 H        -7.6717721567       -1.7988494900       -1.6198333410
 H        -8.3609337171       -3.3309939918       -5.7967781680
 H       -10.0707100006       -3.8652967731       -5.7027537688
 H        -8.5920138586       -4.9769616767       -5.4400702080
 H       -10.7494931139       -4.4264229625       -3.0374171184
 H       -10.8261109856       -2.8994247235       -3.8568045727
 H       -10.2063797624       -2.9740571064       -2.1875072122
 H        -3.1251065000       -7.2667920497       -5.0870243249
 H        -2.0907406425       -8.3559688182       -4.0779527733
 H        -1.7078605905       -6.6721024337       -4.0978718952
 H        -4.9116971331       -8.7225409596       -3.6828485497
 H        -5.0565243562       -8.2321403879       -1.9274033697
 H        -3.7266685538       -9.3696989563       -2.4531143016
 H        -3.4423850985       -7.1676893682        3.4811806536
 H        -3.8117854248       -5.5463134236        4.1237199003
 H        -2.3949415042       -5.9205465183        3.1459969476
 H        -6.1750869529       -5.8962343912        3.0998610063
 H        -5.6989698267       -7.4117505878        2.2124093737
 H        -6.3616207569       -6.0919885531        1.3133464186
 H        -1.3631921259       -3.4491374150        0.1437707343
 H        -0.5971493800       -2.0703113621        1.0657026544
 H        -0.2511473559       -2.5142423895       -0.7354108923
 H        -1.4321955377        0.2554730582        0.7295979411
 H        -2.6732948076       -0.7387919635        1.6171510976
 H        -3.1071742513        0.4375500262        0.4554267125
 H         3.6327841700        1.4755972217       -2.2005409195
 H         4.6188464774        0.4792939421       -3.2992431728
 H         3.9854827923       -0.1299972811       -1.7797415417
 H         1.4621539855        0.7080210518       -5.1159349723
 H         3.3279845536        0.7604979677       -5.1945420874
 H         2.4155381906        2.1182881314       -4.4324646421
 H         1.6897898372       -7.2236967562       -3.3447139413
 H         0.3765848937       -7.5484262513       -4.5883616529
 H         0.0797402831       -6.4417652208       -3.1765762025
 H         2.2568677743       -6.9494792080       -6.0336890432
 H         3.2571134980       -5.8296764760       -5.1532176587
 H         2.3295192019       -5.3819398456       -6.6629506256
 H        -4.7818770067       -1.6731961015       -6.3429607599
 H        -5.4818916705       -3.0278177155       -5.7775382596
 H        -5.8332427827       -2.4588743775       -7.5380665482
 H        -3.4032386011       -5.4508415825       -7.4906157043
 H        -4.3462636115       -4.8910876002       -8.8248317579
 H        -5.2218506339       -5.1316452348       -7.3489184958
 H        -4.2634073837       -1.1769626409      -13.0667167192
 H        -3.6488953393       -2.5689404257      -12.3299666952
 H        -2.9477874453       -2.1141129401      -13.9929300311
 H        -0.1343636079       -0.3465948145      -12.5651992252
 H        -0.8141181927       -1.2431154294      -14.0283197672
 H        -0.6223877788       -2.0542785844      -12.5535759960
 H        -0.1966641821        2.6702481108      -18.5160699106
 H        -1.0400184701        1.2848554405      -17.5977462963
 H         0.5636984237        1.8289914695      -17.1074815153
 H        -0.9815363009        5.1127711010      -15.8856719332
 H         0.3656277855        4.6915111783      -17.0872309932
 H         0.3649984248        4.2270371390      -15.3547578998
 H        -8.0027989089        5.1187577883      -20.0477850743
 H        -6.3107037119        5.3804741983      -20.5810927405
 H        -6.7065450214        5.1090041332      -18.8737236319
 H        -8.6793507901        2.8186111834      -19.1230869320
 H        -7.4546554303        3.2971314018      -18.0471248790
 H        -7.4186186460        1.6362005077      -18.6986029668
 H        -9.3832004766        1.9389447969      -25.5105647255
 H        -9.6957729285        0.3168886241      -25.5537553782
 H        -8.9539363910        1.0547213820      -27.0262283178
 H        -7.2501483054       -0.7040863540      -26.9194759765
 H        -7.2674722268       -1.3937027509      -25.4415029024
 H        -5.9018491705       -0.3617804021      -25.8062527969
 H        -0.8264009399        4.1199745058      -27.1694237536
 H        -2.4057581516        3.9864395774      -27.7926506056
 H        -1.1727088401        2.6236293660      -27.9533622083
 H        -1.6151406457        0.9299524883      -24.7297125763
 H        -0.4532914133        2.2521037418      -24.9075424771
 H        -0.7441301534        1.1048592411      -26.1204438974
 Na       -1.6990604493       -4.0763194487       -3.3106398431
 Na       -4.7673818962        2.4252443091      -23.2736171545
