232

 C        -1.7189930227        5.1423260664      -25.1006079825
 C        -2.4323462500        3.8984484777      -24.9315448723
 O        -3.0342352897        3.6381331587      -23.8933359664
 C        -2.3312016652        2.7664084107      -25.9821053686
 C        -3.6905886574        2.0343820723      -26.1531024674
 O        -3.9995039426        1.1616893470      -25.3147979678
 C        -4.5279773352        2.3957545660      -27.4256747034
 C        -5.8612840431        1.7850330616      -27.3707341713
 C        -6.5872866181        2.0798172210      -26.0564327347
 O        -6.4266664988        3.0987940283      -25.4054858618
 C        -7.4824594953        0.8966424604      -25.4686988246
 C        -7.4053221425        1.0032917686      -23.8858771068
 O        -6.4231033167        0.4989379278      -23.3172893445
 C        -8.5354042008        1.6739462958      -23.1244079162
 C        -8.2000121611        1.7882946171      -21.6097520441
 C        -7.2742708538        2.9401909594      -21.3539564502
 O        -6.7316667644        3.4471565635      -22.3604554571
 C        -6.9334920202        3.4178575378      -19.9227943583
 C        -5.2516691021        2.9941604517      -19.7326604728
 O        -4.6236809602        2.7451653879      -20.7555828696
 C        -4.5913791149        3.0974881423      -18.4268291856
 C        -3.0708110690        2.6527389386      -18.2016075656
 C        -2.4708730537        3.4637068343      -16.9060388290
 O        -3.1918879318        4.2432004393      -16.2938116448
 C        -1.0267917198        3.0616814188      -16.4661254698
 C        -1.2731390027        2.2272131447      -15.2340201254
 O        -1.4749996029        0.9988810979      -15.3166621949
 C        -1.4962351931        2.8754114190      -13.8735052533
 C        -1.6912673659        1.8871418226      -12.6913695297
 C        -2.6182488601        0.6981317061      -12.9770465595
 O        -3.7321594691        0.9562689782      -13.4053944831
 C        -2.2955345260       -0.6854306812      -12.4348578399
 C        -2.2782136047       -0.6008940785      -10.8448281349
 O        -1.3251964519       -0.4099912437      -10.1630737033
 C        -3.7048185920       -0.4746346120      -10.1693251352
 C        -3.4684457668       -1.0367173605       -8.6990025654
 C        -3.7434365856       -2.4995569600       -8.7253033093
 O        -4.1239086898       -3.0610678234       -9.6879361503
 C        -3.8943650770       -3.2690808362       -7.3591072570
 C        -2.5773348101       -3.1675385344       -6.5374172887
 O        -2.4166414799       -2.5502678185       -5.5214087546
 C        -1.4204288339       -3.6448565211       -7.3718710271
 C        -0.1267896512       -3.9287855257       -6.5689425391
 C        -0.0635079767       -5.2185609621       -5.8387520249
 O        -0.8651214858       -6.1296908062       -5.9444999636
 C         1.1731247631       -5.4825385630       -4.7777132530
 C         1.4593912768       -4.3522456002       -3.7421629536
 O         0.6306701207       -3.8793374733       -2.9897695259
 C         2.8254351423       -3.9348031054       -3.4557379943
 C         2.8695726504       -2.4645319996       -2.9166192442
 C         2.4922697121       -1.4174371355       -3.9668922925
 O         2.1106700212       -1.6609089402       -5.0762073964
 C         2.4832044747        0.1069875935       -3.5273328674
 C         1.1631003238        0.1240755108       -2.5112519305
 O         1.3111366149       -0.2422721224       -1.3596790788
 C        -0.1035770418        0.6512949884       -3.0481487413
 C        -1.4003561898        0.5182429602       -2.0455476899
 C        -1.7228254846       -0.9844393309       -1.7659346908
 O        -1.4622114914       -1.7580115762       -2.6686415078
 C        -2.0767895057       -1.4840815267       -0.3814018191
 C        -3.4036951324       -2.3423987698       -0.6491386492
 O        -3.3681875905       -3.2127896754       -1.5133456996
 C        -4.7087038893       -2.3043898206        0.2288776126
 C        -5.1933303048       -3.6654942204        0.7469135924
 C        -4.1848698701       -4.2865821697        1.7745078441
 O        -3.3426674695       -3.6402786157        2.3271804584
 C        -4.2560681769       -5.8863622111        1.9959776543
 C        -3.7271043118       -6.5369077286        0.7111879837
 O        -4.1697719745       -6.4041303694       -0.4319783728
 C        -2.3967515825       -7.3685058547        0.8083560359
 C        -2.1289912952       -8.0604074888       -0.5493906807
 C        -2.3103303974       -7.1007292334       -1.7217401055
 O        -1.6406311832       -6.1326938923       -1.7097572704
 C        -3.4201691872       -7.3894191647       -2.9069734172
 C        -4.3459131486       -6.0302372795       -3.0164762883
 O        -3.8830226404       -4.9292915522       -3.4031959007
 C        -5.8825872535       -6.1008505791       -2.8432130660
 C        -6.6333252647       -5.1809674710       -3.7940988212
 C        -7.8110853136       -4.4830764613       -2.9765660717
 O        -7.9177388109       -4.5136397904       -1.7419397806
 C        -8.8340125450       -3.6383925686       -3.7922767982
 C        -8.0971730587       -2.3105547702       -3.5915377944
 O        -7.3586419537       -1.9559416210       -4.5043178636
 C        -8.1365013070       -1.5024267371       -2.2783793710
 C        -8.9864270171       -4.0237281917       -5.3201650970
 C       -10.3391763628       -3.6138772606       -3.2125458940
 C        -2.7250582707       -7.4903414676       -4.2809071878
 C        -4.2630463745       -8.6115858350       -2.7145012113
 C        -3.4191672908       -6.1436591208        3.2938528657
 C        -5.7564299736       -6.2559000823        2.0800643236
 C        -0.8890351110       -2.5542722129       -0.1056788736
 C        -2.3978845917       -0.3657716661        0.6367682517
 C         3.7584796690        0.4212209138       -2.5905977967
 C         2.4282589920        1.0261924469       -4.7492545878
 C         1.0969097284       -6.8291506850       -3.9298570169
 C         2.3220241707       -5.7251008088       -5.7888493544
 C        -5.1575007406       -2.5829748746       -6.7262585997
 C        -4.3396200925       -4.7254210396       -7.6585192739
 C        -3.2918856716       -1.6964951660      -12.9788461020
 C        -0.8199340285       -1.1205996334      -13.0119955075
 C        -0.2427723832        2.2259471767      -17.5254680882
 C        -0.1993613212        4.2989954498      -16.0716035214
 C        -7.0503483448        4.9215122580      -19.8889117607
 C        -7.7819451075        2.5592140976      -18.8466529350
 C        -8.9810826809        0.9094765713      -25.9088391056
 C        -7.0039912534       -0.5094621535      -25.8421542350
 C        -1.7237478047        3.2505196309      -27.3164040940
 C        -1.4357961265        1.5827871109      -25.3871901471
 H        -0.6633046760        5.0289188324      -25.5348850898
 H        -1.7595452916        5.7218628743      -24.1639614504
 H        -2.0766893897        5.8908807029      -25.8301409050
 H        -4.0199039296        2.0432769596      -28.3112619700
 H        -4.5795714374        3.5330660717      -27.6038793648
 H        -5.7679703193        0.6668109035      -27.3621013542
 H        -6.4718627085        2.0456931630      -28.2496066641
 H        -9.5907681520        1.3844857836      -23.2776807239
 H        -8.5848182318        2.7147533940      -23.4649719929
 H        -7.5626724816        0.8991180668      -21.3036982001
 H        -9.0700651921        1.7874003645      -20.8876171153
 H        -5.1856798806        2.7291657535      -17.5176796745
 H        -4.5490284827        4.1810498940      -18.2113092607
 H        -2.4729761057        2.7290313690      -19.0902531693
 H        -3.0491548838        1.5540523508      -18.0536527582
 H        -2.3777137585        3.5755462246      -14.0645647378
 H        -0.7917846195        3.6122061538      -13.5517494200
 H        -2.1522811293        2.3700583622      -11.8331961354
 H        -0.6654256816        1.6690981103      -12.3304933687
 H        -4.5125745409       -0.9326879919      -10.6141693164
 H        -3.9083777909        0.6340242262      -10.0681329066
 H        -4.3394325177       -0.5808208058       -8.0224733862
 H        -2.5020102105       -0.7911551100       -8.3274072762
 H        -1.2929659408       -2.8865806515       -8.1463122856
 H        -1.6494680778       -4.5701829516       -7.8996928681
 H         0.0198097941       -3.2038264008       -5.7901406036
 H         0.7590926055       -3.9204791345       -7.2269506488
 H         3.4282866311       -4.0634201869       -4.3483980699
 H         3.3366719664       -4.5880733123       -2.7010183444
 H         3.9286214216       -2.3494083717       -2.5214263000
 H         2.1217290980       -2.5024906723       -2.0575735268
 H        -0.3807790391       -0.0348548823       -3.9378044834
 H         0.0674850057        1.7939248687       -3.1944394405
 H        -2.2310163514        0.9776231556       -2.5472697708
 H        -1.0918627430        1.0407752340       -1.1522894203
 H        -5.4358279307       -1.8422854209       -0.5190136356
 H        -4.4706590248       -1.6273883304        1.1000988653
 H        -5.1777533947       -4.2626667533       -0.1013555192
 H        -6.2956259761       -3.6503226654        1.0865456439
 H        -2.5097881394       -8.0458788992        1.6115976755
 H        -1.6903120510       -6.6179887570        1.1336290282
 H        -2.5663758701       -9.0314958144       -0.5978796705
 H        -1.1300761854       -8.3752334028       -0.5634670580
 H        -6.1787375099       -5.8486168780       -1.7287933244
 H        -6.3264485630       -7.1044055271       -2.9376538737
 H        -7.0989386415       -5.7926688505       -4.5822197269
 H        -5.9759850326       -4.4013478714       -4.1747364880
 H        -9.1644165775       -1.3531564756       -1.9893995704
 H        -7.6386221027       -0.6013593004       -2.3951545358
 H        -7.4742990999       -2.0301115334       -1.5701337928
 H        -8.2337459096       -3.4953787200       -5.8661590914
 H        -9.9109775204       -3.6662698943       -5.6581002401
 H        -8.7866196448       -5.1131360221       -5.4443456748
 H       -10.8274022172       -4.5287917262       -3.3181301546
 H       -10.8175181015       -2.8740328158       -3.7560648181
 H       -10.3816278877       -3.3444649568       -2.1619057019
 H        -3.5132819269       -7.3868531238       -5.0240012439
 H        -2.2291529038       -8.4860760029       -4.4328203040
 H        -2.0060383434       -6.7494071752       -4.4427034873
 H        -4.7322885952       -8.7772810682       -3.7049761223
 H        -4.9184205614       -8.5356265170       -1.8339072294
 H        -3.5184352083       -9.4483245684       -2.5837768601
 H        -3.4324957470       -7.2335519838        3.4285430852
 H        -3.8650869281       -5.7373243550        4.1462634731
 H        -2.4266021164       -5.8874024570        3.2723104212
 H        -6.2262479262       -5.7552092681        2.9325207720
 H        -5.8096967954       -7.3365154140        2.1176568941
 H        -6.2907032887       -5.9881179818        1.1975073997
 H        -1.2445862816       -3.5971996623       -0.3885414304
 H        -0.6082513114       -2.4876040569        0.9482630529
 H         0.0205678291       -2.3686429401       -0.7472472448
 H        -1.6520304681        0.3077310259        0.9417185969
 H        -2.8829978006       -0.8247095011        1.4830475478
 H        -3.1663500713        0.2684609064        0.2877976707
 H         3.9154010207        1.4620712218       -2.4833098785
 H         4.6913829720       -0.0663863412       -2.9736460695
 H         3.5972978764        0.0797942280       -1.6057713121
 H         1.6751335838        0.6641497141       -5.4313635706
 H         3.4263983936        1.0259972915       -5.1203688751
 H         2.2216340963        2.0360306504       -4.3899202482
 H         2.1689896999       -7.0059608227       -3.6307319788
 H         0.6654525523       -7.6183097704       -4.5366917300
 H         0.5494818265       -6.7068160646       -3.0034318574
 H         2.0979925376       -6.7590124978       -6.0056885207
 H         3.3313568656       -5.6995187848       -5.3747719244
 H         2.1790729477       -5.2283029494       -6.8010473663
 H        -5.1013933753       -1.5376438466       -6.5771106563
 H        -5.0779181669       -2.8759555733       -5.6790417596
 H        -5.9747420832       -2.9396705078       -7.3067329176
 H        -3.4470009613       -5.4203360332       -7.6383838739
 H        -4.6905684445       -4.7582429041       -8.6805972948
 H        -5.1849132127       -5.0239386023       -7.0677700223
 H        -4.1939558841       -1.1186822413      -13.3398695306
 H        -3.7499302577       -2.4466619205      -12.2679240317
 H        -2.7787379876       -2.2209733433      -13.6978168276
 H        -0.1112992956       -0.2571539037      -12.8525219818
 H        -0.7593921332       -1.4875926870      -14.0354277659
 H        -0.4638855753       -2.0068078352      -12.4541333707
 H        -0.1282228224        2.9566807685      -18.3274348151
 H        -0.8082812384        1.3620616126      -17.8254793323
 H         0.7218467163        1.9277971982      -17.1661669822
 H        -0.8261409017        5.1239235847      -15.5829166602
 H         0.3901298156        4.6347629427      -16.9252101273
 H         0.5242804681        4.0357827683      -15.2824458924
 H        -8.1489923105        5.0811138960      -19.8312144131
 H        -6.6663320259        5.2521360058      -20.8111632279
 H        -6.4619515070        5.3674446239      -19.0779037118
 H        -8.8176433881        2.9422177966      -19.0887908656
 H        -7.5610798768        2.7548436105      -17.8201433700
 H        -7.7680275532        1.5145865590      -19.0736748213
 H        -9.7095869750        1.5893666119      -25.5813868643
 H        -9.3450399075       -0.0360443336      -25.4944535238
 H        -8.9181181680        0.8708049222      -26.9425907883
 H        -7.1714706578       -0.8949361305      -26.8603828237
 H        -7.6891384237       -1.2235635246      -25.3454738140
 H        -5.9432386690       -0.6706635175      -25.5032890466
 H        -0.8504482862        3.8658606424      -27.2242906883
 H        -2.3370703523        3.9147649698      -27.9190165640
 H        -1.4055641251        2.2823996791      -27.8254212539
 H        -2.0323077311        1.0606512572      -24.6843977461
 H        -0.4528982195        1.7767526758      -24.9168815538
 H        -1.3508444529        0.8155310488      -26.1220993655
 Na       -1.7663061627       -3.9934926101       -3.2718589272
 Na       -4.8322982349        2.5052785647      -23.3193612845
