232

 C        -1.6556068186        5.1475849193      -25.1745660946
 C        -2.4218130221        3.8657361866      -24.8985091908
 O        -3.0523444109        3.7804477387      -23.8859078813
 C        -2.3775379444        2.5898330148      -26.0006301682
 C        -3.7504238346        1.9679382273      -26.2381453433
 O        -4.2684768675        1.2352050472      -25.4212871525
 C        -4.4945573711        2.3338707795      -27.4769308070
 C        -5.9036038820        1.7482759113      -27.4589686095
 C        -6.6348056971        2.0018396882      -26.0647665423
 O        -6.4832886997        3.0642414122      -25.4874939123
 C        -7.5359581819        0.7902099538      -25.4139149330
 C        -7.4560371281        1.0092853335      -23.9135016013
 O        -6.4050087175        0.6233047389      -23.3723789530
 C        -8.5220289281        1.6040683088      -23.0589536259
 C        -8.1602016313        1.6417521085      -21.5065768620
 C        -7.2120434700        2.8563409036      -21.3048698709
 O        -6.8157962807        3.5821694611      -22.1700949408
 C        -6.8582577814        3.3364286123      -19.8883635226
 C        -5.2380887385        2.9664288187      -19.7945754808
 O        -4.5757424694        2.6013461037      -20.7720982089
 C        -4.6214032154        3.3115801588      -18.3216675057
 C        -3.0932467917        2.8546172580      -18.2006889122
 C        -2.4690967531        3.4779201388      -16.9305751096
 O        -3.0425671333        4.2808595770      -16.2823201020
 C        -0.9684250805        3.0728327732      -16.4436488178
 C        -1.3325488734        2.1731186351      -15.1660054829
 O        -1.6126874972        0.9720398834      -15.2532646396
 C        -1.5114859480        2.9165035788      -13.8333137850
 C        -1.5891372002        1.9258565185      -12.6679359351
 C        -2.6266093342        0.8309546694      -13.0281464271
 O        -3.7058372738        1.0099713770      -13.5357126863
 C        -2.1706002967       -0.6942623960      -12.4836988211
 C        -2.2409514255       -0.4250996673      -10.9429008386
 O        -1.2099726636       -0.3052968329      -10.2714160005
 C        -3.6447206486       -0.4369820558      -10.2799354414
 C        -3.6206271552       -0.9787786944       -8.7483701427
 C        -4.0198104498       -2.5000890009       -8.8001452456
 O        -4.1231706767       -3.1441680495       -9.8127473649
 C        -4.0287971778       -3.2052712420       -7.2721224379
 C        -2.6046946099       -2.9921382780       -6.5142756759
 O        -2.4612979054       -2.5226256543       -5.4046637439
 C        -1.3459759462       -3.5846620287       -7.3023980071
 C        -0.0560085615       -3.7244263531       -6.3874914650
 C        -0.0376130269       -5.1779845078       -5.6548654253
 O        -0.8181969980       -6.0397903951       -6.0234724876
 C         1.2626698512       -5.4811972359       -4.8433117416
 C         1.4352020900       -4.2650957895       -3.7043988175
 O         0.4537764497       -4.0134263422       -3.0485281276
 C         2.8711238046       -3.8503490491       -3.5568878489
 C         2.8756755656       -2.4507020726       -2.9618329759
 C         2.5189171316       -1.4505704142       -4.0439194037
 O         2.1481664300       -1.6791707509       -5.1609823724
 C         2.4465514300        0.0821656194       -3.4687346017
 C         1.2083412483        0.1295043836       -2.4780174667
 O         1.4236639645       -0.1910241026       -1.3523782309
 C        -0.1796633085        0.5161578078       -3.1021486024
 C        -1.3291458482        0.5500794031       -2.0225194937
 C        -1.6239598446       -0.9749899246       -1.8566930159
 O        -1.4624434073       -1.6636939066       -2.8412919304
 C        -2.1461638139       -1.6330299404       -0.4472352527
 C        -3.4354476387       -2.4932286602       -0.5628386114
 O        -3.4901842887       -3.3933838754       -1.3586807836
 C        -4.7466426030       -2.2416344136        0.2739753886
 C        -5.2032807976       -3.5897298691        0.7954062597
 C        -4.1539641113       -4.3076501854        1.5983684377
 O        -3.3514724435       -3.6231253934        2.2690153831
 C        -4.2532377410       -5.8974554630        1.9199337619
 C        -3.6436033755       -6.5751081476        0.6586584151
 O        -4.1518189983       -6.2789591136       -0.4302878372
 C        -2.3661919516       -7.4819908434        0.7715634792
 C        -2.1439583897       -8.1226917586       -0.6324090734
 C        -2.3384274353       -7.0709387017       -1.7737777831
 O        -1.6213141544       -6.0314382132       -1.8255681786
 C        -3.4278231630       -7.3774671809       -2.8962043367
 C        -4.2902189210       -6.0748053978       -3.1364262647
 O        -3.7780844764       -5.0658712917       -3.4602931262
 C        -5.8023897823       -6.2285302488       -2.8813164008
 C        -6.6883738000       -5.2389527106       -3.7402545021
 C        -7.8110145640       -4.5761594468       -2.9926745436
 O        -7.8021992899       -4.4867899793       -1.8050594275
 C        -8.8394700275       -3.5777904564       -3.8305404600
 C        -8.1241675758       -2.1550995455       -3.6622445346
 O        -7.3636082122       -1.7911822720       -4.5127227759
 C        -8.0590687329       -1.6341453209       -2.2536905289
 C        -8.9009439276       -4.0022145818       -5.2589395928
 C       -10.2745853961       -3.7992151465       -3.1754936946
 C        -2.8423728807       -7.5442297565       -4.3371577683
 C        -4.1543055152       -8.7723101902       -2.5809809300
 C        -3.5695859750       -6.2272081736        3.1880721600
 C        -5.7717861697       -6.2662986269        2.0627325538
 C        -0.9438447852       -2.4990195633       -0.0012388103
 C        -2.2924319489       -0.5742559417        0.6187655889
 C         3.7101454373        0.3349642464       -2.5928469457
 C         2.3814113560        0.9848978827       -4.6775793946
 C         1.1599909061       -6.7183611670       -4.0140386953
 C         2.4724291849       -5.5256879863       -5.9022676041
 C        -5.2024349579       -2.5942739110       -6.3811091844
 C        -4.3455414508       -4.7382481392       -7.4880639572
 C        -3.2776480311       -1.7970839162      -12.8843779481
 C        -0.7514485828       -1.1859685159      -12.8781310677
 C        -0.1319021872        2.3471009921      -17.5421159162
 C        -0.1480758730        4.3674835138      -15.9796659847
 C        -7.0997487954        4.8682007791      -19.7542594833
 C        -7.7419947807        2.6012881593      -18.8512003218
 C        -9.0257044957        0.9654141556      -25.9484705153
 C        -6.9357234788       -0.6198352465      -25.6908030356
 C        -1.7733644419        3.0787384592      -27.3077845509
 C        -1.4390336184        1.5727774619      -25.3445998606
 H        -0.8164575032        5.1108596423      -25.8649459986
 H        -1.5007981205        5.8649154685      -24.3170198502
 H        -2.3011848895        5.7417920759      -25.8235476962
 H        -3.9725351939        2.0252480536      -28.3259490939
 H        -4.5325329918        3.4359829660      -27.5948900619
 H        -5.9423402833        0.6405072122      -27.6131349890
 H        -6.4972262183        2.2294896789      -28.2934667182
 H        -9.4071444908        1.0612047024      -23.1230319548
 H        -8.9797556284        2.6496906623      -23.4292417612
 H        -7.6754306233        0.6970398800      -21.1985432841
 H        -9.0814710626        1.7175262992      -20.8102406099
 H        -5.1215671982        2.6984013406      -17.6186012338
 H        -4.7198547705        4.3438306782      -17.8258588841
 H        -2.5333940090        3.2450702982      -19.0016573875
 H        -2.9739189832        1.7755556341      -18.3861788756
 H        -2.4373063129        3.5084114537      -13.9413648146
 H        -0.7640622264        3.7764424935      -13.6133238829
 H        -1.8763579129        2.3280950458      -11.6919274898
 H        -0.5962269752        1.5584466271      -12.5138276406
 H        -4.4861337889       -0.9628144402      -10.8920004409
 H        -3.9104233687        0.6181883126      -10.2358914375
 H        -4.3809175727       -0.3459034399       -8.0915299353
 H        -2.5884088869       -0.9644629544       -8.3420502065
 H        -1.1966210094       -2.8803214669       -8.1499901870
 H        -1.4376320511       -4.5582722156       -7.7412415063
 H         0.0137836081       -2.9376477984       -5.6812072465
 H         0.8171850351       -3.7249886456       -6.9551857251
 H         3.3234962874       -3.9408997252       -4.5493906424
 H         3.5584860283       -4.4565688447       -2.8900389945
 H         3.8595955549       -2.3226430161       -2.5829410470
 H         2.1534832006       -2.5050902741       -2.1290018145
 H        -0.5210124296       -0.2833008565       -3.8311951146
 H        -0.0616280063        1.6359658230       -3.4301719962
 H        -2.2553174858        0.9569847139       -2.4826521330
 H        -0.8905305299        1.1013682487       -1.1858021248
 H        -5.5129262550       -1.8510018951       -0.4268749424
 H        -4.5153604049       -1.5649395257        1.1264411951
 H        -5.5518466528       -4.1425051723       -0.0666745859
 H        -6.0379305258       -3.4652088043        1.4442437767
 H        -2.6000094804       -8.1560699736        1.6472767535
 H        -1.6481919571       -6.7273494875        1.1202604625
 H        -2.6290245563       -9.0559542888       -0.7670959090
 H        -1.0732381036       -8.4276805485       -0.6948198745
 H        -6.0261161790       -6.1150989795       -1.7671550042
 H        -6.1913708803       -7.2064137350       -3.0750608411
 H        -7.0650460544       -5.7732808551       -4.5626161222
 H        -6.0576082716       -4.3455515506       -4.0673635340
 H        -9.1639175664       -1.4959831522       -1.9694387343
 H        -7.4239519525       -0.7190680346       -2.0967523212
 H        -7.5223658607       -2.4190335525       -1.7156306356
 H        -7.9193962781       -3.8905224069       -5.6956831383
 H        -9.5283416992       -3.3342949173       -5.7523895000
 H        -9.2002752760       -5.0774859949       -5.3335297491
 H       -10.7608560957       -4.7027559924       -3.4924867921
 H       -10.9219260957       -2.9155659232       -3.2484242505
 H       -10.0884635847       -3.9607355943       -2.1593103648
 H        -3.6763717396       -7.6700671375       -4.9712046378
 H        -2.2491004659       -8.4567238965       -4.4464742373
 H        -2.2725833959       -6.7006516389       -4.7123403492
 H        -4.8640909205       -8.8528388310       -3.3663234985
 H        -4.4744445007       -8.9033760793       -1.4769498389
 H        -3.4156050747       -9.5491352388       -2.8225877125
 H        -3.5648300074       -7.2964834117        3.2810233628
 H        -4.0571994871       -5.9243154680        4.0884303273
 H        -2.5239077602       -5.8959177858        3.2313449451
 H        -6.2121678432       -5.6062762379        2.8044532115
 H        -5.7650690151       -7.2954674108        2.3399164120
 H        -6.3933800643       -6.1762385215        1.1819659836
 H        -0.8044412051       -3.3910598401       -0.6583924151
 H        -1.0890855468       -2.7474723551        1.0209098236
 H         0.0139908363       -1.8998648746       -0.0146613615
 H        -1.3764414224        0.0212420605        0.7238096085
 H        -2.5491785759       -0.9159083504        1.5638635754
 H        -3.0016096705        0.1545561645        0.3863531484
 H         4.0975548960        1.3259603427       -2.8547946853
 H         4.4587448184       -0.3757250058       -2.8486130846
 H         3.5518321089        0.3786168734       -1.5193108503
 H         1.7743583908        0.5571097478       -5.4337952226
 H         3.3818207327        1.1640048358       -4.9683902416
 H         2.0041707500        1.8867274855       -4.2763648239
 H         2.2194785363       -6.8289743760       -3.7575593637
 H         0.7539308334       -7.5556264690       -4.5494275569
 H         0.6346878617       -6.5951016997       -3.0874361241
 H         2.2164658482       -6.3199527906       -6.7071079256
 H         3.3693360230       -5.8813007281       -5.3583500998
 H         2.5397785989       -4.5420309979       -6.4400862023
 H        -5.1666917306       -1.4871465167       -6.3007872228
 H        -4.9858595744       -2.8464661620       -5.4124324011
 H        -6.1300641131       -3.0144773671       -6.8189309397
 H        -3.4008491829       -5.2241984119       -7.7248833878
 H        -5.0605663141       -4.9437856490       -8.2567582950
 H        -4.7684984305       -5.1528472284       -6.5461106250
 H        -4.1718653448       -1.2271425665      -13.2378459126
 H        -3.6316659006       -2.3832968241      -12.1049823078
 H        -2.8685699377       -2.5509285444      -13.5720606924
 H        -0.1017322068       -0.3015803975      -12.8235544957
 H        -0.7647010254       -1.4314668435      -13.9443527105
 H        -0.3371770304       -2.1001281993      -12.4554565787
 H        -0.0877438053        2.9827784806      -18.3507114139
 H        -0.5615749438        1.3834946164      -17.8072726843
 H         0.9168060180        2.1531140680      -17.1571708060
 H        -0.6135749936        4.9933906329      -15.2086781603
 H         0.1061250769        4.9407425869      -16.8632105153
 H         0.8300201538        4.0511287774      -15.5562691779
 H        -8.1494941965        4.8764943687      -19.5388350346
 H        -6.8917336700        5.2896010358      -20.8040698356
 H        -6.3654173605        5.3639089967      -19.0398237129
 H        -8.6743563540        3.1541108085      -18.9711986412
 H        -7.3915981398        2.7217518378      -17.7532152416
 H        -7.9222327521        1.5685042488      -19.0778877987
 H        -9.5576151416        1.8809441067      -25.8267536680
 H        -9.6196329846        0.2368986740      -25.4586914787
 H        -8.9096300687        0.8120485920      -27.0554764497
 H        -6.9848095515       -0.9224851939      -26.7710047345
 H        -7.6766517391       -1.3576457148      -25.3515877498
 H        -5.8634511801       -0.8096532338      -25.3145604187
 H        -0.7342386995        3.3804036380      -27.2449996684
 H        -2.1860571551        4.0290187988      -27.6272266882
 H        -1.8717102420        2.2642908887      -28.0629775934
 H        -1.8017572363        1.4326790847      -24.3607779513
 H        -0.3492030472        1.8103040005      -25.3001353691
 H        -1.5981502649        0.5196372435      -25.7539330665
 Na       -1.8577748400       -3.9453336237       -3.1826980821
 Na       -5.0018513215        2.5060683365      -23.3145655657
