232

 C        -1.5749326925        4.7684977112      -25.6131799955
 C        -2.6852644305        3.7731588020      -25.3236051761
 O        -3.6480728944        4.1376312582      -24.6326536794
 C        -2.6600721450        2.2863191996      -25.8590459459
 C        -4.0978880260        1.6866372888      -25.9759648342
 O        -4.4774860737        0.8160357961      -25.2035809877
 C        -5.0655177825        2.2953204142      -27.0221018707
 C        -6.3856294843        1.5577003732      -27.0269758069
 C        -7.0234195059        1.8232903069      -25.6305091652
 O        -6.8496595720        2.8822844554      -25.0499117962
 C        -7.8633008993        0.6308197531      -25.0379054513
 C        -7.7328985213        0.7839956607      -23.3895995225
 O        -6.6261280205        0.7523641747      -22.8810871282
 C        -8.9062043129        1.1621949397      -22.5725958963
 C        -8.5143968255        1.6806590113      -21.1187645893
 C        -7.4250653910        2.7223741351      -20.9326626532
 O        -6.9983745849        3.3301953942      -21.9163053179
 C        -6.7244187060        3.1063470708      -19.6365324927
 C        -5.1733908013        3.3999345480      -19.7943975497
 O        -4.6135723257        3.4772396882      -20.9179976467
 C        -4.3492524293        3.4336500020      -18.5687967110
 C        -2.7267748743        3.2871952058      -18.5848843086
 C        -2.1115895169        3.8798833118      -17.2842398502
 O        -2.9403552317        4.5171458307      -16.6139379849
 C        -0.6673320827        3.5343350989      -16.7726182161
 C        -0.9666959568        2.3960131517      -15.6202525196
 O        -0.4040234865        1.3068898634      -15.7268188481
 C        -1.9899724459        2.7791130948      -14.4740632640
 C        -1.7110894530        1.9709586216      -13.1219704255
 C        -2.6567249807        0.7886532767      -12.8816797325
 O        -3.8481686326        0.9067624501      -13.1191849814
 C        -2.1247295521       -0.6349289815      -12.1858683581
 C        -2.4133389235       -0.5627445632      -10.6615025714
 O        -1.5665410939       -0.7778796388       -9.8794997673
 C        -3.8732434850       -0.3261736043      -10.2058624407
 C        -4.4979890623       -0.7899266538       -8.8156838297
 C        -4.0380840066       -2.2360656046       -8.6153506338
 O        -3.5054472557       -2.8982627612       -9.4499809607
 C        -4.2553430945       -2.7605129112       -7.1503985641
 C        -2.8677706050       -2.8887318275       -6.3354170109
 O        -2.8794356510       -3.2258423256       -5.1847330130
 C        -1.5266861075       -2.6185912705       -7.1087734128
 C        -0.3478660159       -2.7177342021       -6.1169887296
 C        -0.0816217074       -4.2697338856       -5.8600691213
 O        -0.8651541520       -5.0514264118       -6.3971971977
 C         1.2818122643       -4.7798473632       -5.2871120214
 C         1.4350802052       -4.0349810324       -3.8948044465
 O         0.5375734360       -3.6222165674       -3.1873820373
 C         2.8925820665       -3.8077850387       -3.4268032379
 C         2.9431849085       -2.3764827340       -2.7587826677
 C         2.5088829491       -1.2862589996       -3.8545932906
 O         2.2311715110       -1.6482177826       -4.9742690658
 C         2.3643771404        0.2504694730       -3.4000874054
 C         1.2554429788        0.3053000619       -2.3183578116
 O         1.3730969211       -0.3056251867       -1.2961742387
 C        -0.0325242417        1.0404201641       -2.4600720631
 C        -1.2673027192        0.4308686188       -1.6358596585
 C        -1.3199787095       -1.1173465790       -1.7225565868
 O        -1.2309582253       -1.6202752295       -2.8090868412
 C        -1.6512745640       -1.8875505740       -0.3580647296
 C        -2.9875895088       -2.5528550127       -0.5543911557
 O        -3.0296037811       -3.3840942931       -1.4223869818
 C        -4.3021847025       -2.2776224971        0.2164550665
 C        -5.0522160738       -3.6137861583        0.5394129503
 C        -4.1374870700       -4.5427551532        1.4465839750
 O        -3.1074774531       -4.0610826743        1.8440370978
 C        -4.4777831286       -6.0463108018        1.6616454369
 C        -3.8672577646       -6.7753074457        0.4152030548
 O        -4.5306426900       -7.0407512600       -0.5840297800
 C        -2.2368983487       -7.0093415549        0.4080274424
 C        -1.9645845399       -7.9511394776       -0.7777688819
 C        -2.4406893189       -7.3396449992       -2.1200449626
 O        -1.9790208968       -6.2219228382       -2.4682740937
 C        -3.3972235342       -8.0061353606       -3.1602353795
 C        -4.1790790421       -6.6944403097       -3.7282135503
 O        -3.5979126186       -5.8057443829       -4.2170212413
 C        -5.6208792984       -6.7212290277       -3.4186932699
 C        -6.3172004078       -5.4814932296       -4.0770065559
 C        -7.2923800764       -4.7342529606       -3.1366801560
 O        -6.9571360280       -4.5822789333       -1.9551402848
 C        -8.4739620059       -3.8720439690       -3.6940213464
 C        -8.0426901838       -2.3502563712       -3.3167038184
 O        -7.6041607689       -1.5371546138       -4.1183533538
 C        -8.0828225439       -1.9954337417       -1.7526526111
 C        -8.6276289696       -4.0276926852       -5.2632876309
 C        -9.6846411244       -4.2985591088       -2.8382202642
 C        -2.4557663086       -8.5202732688       -4.3381666849
 C        -4.2781083703       -9.1111895495       -2.5410301799
 C        -3.9084332221       -6.4981214940        3.0501983865
 C        -5.9859529209       -6.2315284668        1.6157934921
 C        -0.6675793667       -3.0110303004       -0.1123569952
 C        -1.6848362811       -1.0102530158        0.8718774334
 C         3.6417579795        0.7001384855       -2.6795100924
 C         1.9598736300        0.9515868626       -4.7448611325
 C         1.2588627756       -6.3476693320       -5.2539259754
 C         2.3270201324       -4.4422372060       -6.4052915184
 C        -5.2886327487       -2.0412368927       -6.2440454077
 C        -4.7262586100       -4.2538271744       -7.4129559268
 C        -3.0211807198       -1.8190719477      -12.8020292007
 C        -0.7134937665       -0.8732276932      -12.4658072472
 C         0.1816911395        3.0135231699      -17.9371202993
 C        -0.0331048266        4.8254242435      -16.1672049204
 C        -7.3790025752        4.5169114453      -19.2200265183
 C        -6.9269228126        2.1402744732      -18.3772108972
 C        -9.2871898662        0.7874862967      -25.5347448624
 C        -7.1189910305       -0.7310214750      -25.2602228397
 C        -1.8300588833        2.1137943366      -27.2098500193
 C        -1.7114330820        1.4577530789      -24.9269356853
 H        -0.8903760719        4.9501844274      -24.7161241591
 H        -1.9956642163        5.7680515323      -25.7104414664
 H        -1.0064279811        4.5974528233      -26.5537762525
 H        -4.5690205617        2.1525419930      -28.0189633189
 H        -5.0877634895        3.2871556436      -26.7188263152
 H        -6.3084460654        0.4668975868      -27.1318110336
 H        -7.0648160029        1.8894927499      -27.8748565963
 H        -9.8104859418        0.4313832995      -22.4764243057
 H        -9.2937333901        1.9660812091      -23.0869848748
 H        -8.3111816387        0.7875937093      -20.3854424804
 H        -9.4123112479        2.2178463111      -20.7250489045
 H        -4.7035140129        2.8211592040      -17.7108229967
 H        -4.4670138476        4.4386592929      -18.0960196896
 H        -2.4177323199        3.8764982968      -19.4492691329
 H        -2.4308391853        2.2618017173      -18.6720247761
 H        -2.9834719027        2.3719130690      -14.7520595260
 H        -1.9288844859        3.8629262768      -14.2510401071
 H        -1.7699818870        2.6797444096      -12.2937303052
 H        -0.6757600385        1.6441263233      -13.1391443984
 H        -4.5587193295       -0.7179242207      -10.9533918421
 H        -4.1051426729        0.8019430493      -10.2009338486
 H        -5.5697090708       -0.7678523560       -8.7942099896
 H        -4.2207080527       -0.1468551225       -7.9089262480
 H        -1.5286504509       -1.7452488981       -7.7571540816
 H        -1.3969675826       -3.5106386883       -7.7602504747
 H        -0.4904642937       -2.2598317510       -5.1732240152
 H         0.6142772547       -2.3393390754       -6.3510315718
 H         3.5745415287       -3.7643361228       -4.3604221065
 H         3.3299387872       -4.5148493998       -2.7093664687
 H         3.9726123084       -2.1791816928       -2.3372435474
 H         2.3592481055       -2.3535930676       -1.8057296947
 H        -0.3371530576        1.1741140710       -3.5767734032
 H         0.1088070185        2.1428394564       -2.1821336424
 H        -2.1953816050        0.8593297784       -2.0504684152
 H        -1.1928667275        0.9091171541       -0.6260313956
 H        -4.9529997327       -1.5708750393       -0.4122847457
 H        -4.1391597564       -1.6854147968        1.1603739863
 H        -5.2003182332       -4.0086851260       -0.4641989878
 H        -5.9776297725       -3.4212405660        1.0268585449
 H        -2.0380408502       -7.3792962152        1.4103392052
 H        -1.8529424440       -5.9966872062        0.2736286796
 H        -2.5226886819       -8.8599615628       -0.5690093498
 H        -0.9199204281       -8.1479294658       -0.9343623822
 H        -5.6720113796       -6.6032070274       -2.3267167239
 H        -6.2242003091       -7.6917156541       -3.7038071011
 H        -6.7869493909       -5.8514895407       -4.9963005019
 H        -5.4907388985       -4.8631258927       -4.4466761101
 H        -9.0342775179       -2.1347638150       -1.3345745929
 H        -7.7363654586       -1.0267198006       -1.6584983247
 H        -7.4434530023       -2.7754102852       -1.3361697008
 H        -7.6806415624       -3.8473871590       -5.7347506229
 H        -9.3267733658       -3.3111621628       -5.6819889832
 H        -8.9921658802       -5.0053946482       -5.6176715455
 H       -10.1092656207       -5.1250632908       -3.3560451117
 H       -10.4992547564       -3.6556979738       -2.6909267968
 H        -9.4049379831       -4.6286759593       -1.8212413611
 H        -3.0347474795       -8.9714816631       -5.2117648209
 H        -1.7709712712       -9.2710165764       -3.9400330821
 H        -1.8729657723       -7.7496349329       -4.8388279113
 H        -5.0383292808       -9.4726201632       -3.3256342928
 H        -4.9405221067       -8.7739810574       -1.7749884593
 H        -3.6674911675      -10.0167457078       -2.3183170961
 H        -3.8619210911       -7.5915874893        3.1437961763
 H        -4.5134414969       -6.0573209016        3.8087365279
 H        -2.9491669994       -6.1191546915        3.1588715536
 H        -6.3292004837       -5.4865700881        2.3158131192
 H        -6.4056333509       -7.1509612049        2.0286633137
 H        -6.3874012823       -6.0778638038        0.6207846868
 H        -0.4291557441       -3.5562665833       -1.0422234306
 H        -1.1354753258       -3.7923417078        0.5607791974
 H         0.2432057834       -2.5218577253        0.3224952611
 H        -0.8107773591       -0.4820795415        1.1124460833
 H        -1.8798144821       -1.6487695720        1.7649981022
 H        -2.4351897527       -0.2412289372        0.8882618302
 H         3.9723072087        1.6202083318       -3.0947606511
 H         4.4129347152       -0.0587234665       -2.9207143544
 H         3.5370939497        0.7038617963       -1.6103595957
 H         1.0422088328        0.5311965318       -5.1813836249
 H         2.8772018291        0.8431391497       -5.3390996420
 H         1.8354512567        1.9786071939       -4.3843256549
 H         2.0493306059       -6.6134881292       -4.5585178066
 H         1.5776608054       -6.7585618955       -6.2332160515
 H         0.2269797683       -6.6985493079       -5.0271390336
 H         1.8445435174       -4.9301450479       -7.2021031695
 H         3.2636662024       -4.9196688392       -6.1628385734
 H         2.4479914639       -3.3506290348       -6.4061578376
 H        -5.0051566530       -1.0139386886       -6.2377071905
 H        -5.4039796197       -2.5677658670       -5.2168510783
 H        -6.2500750173       -2.0050545741       -6.7092741706
 H        -5.7020311351       -4.5777297011       -7.0326801089
 H        -3.9943984343       -4.9205727248       -6.9038281513
 H        -4.6610214203       -4.4879483855       -8.4792621868
 H        -3.1334861806       -1.6536409061      -13.8609542807
 H        -4.0281560492       -1.8504976856      -12.2395867778
 H        -2.6263490077       -2.7697581400      -12.7826911741
 H        -0.0508701602       -0.4425153637      -11.6768329696
 H        -0.5849380479       -0.4084561155      -13.4796727598
 H        -0.3607951533       -1.9141736500      -12.3737793921
 H         0.4821577193        3.8078045704      -18.6837967531
 H        -0.3124625318        2.2447432568      -18.4898185158
 H         1.0928760994        2.6592154191      -17.5795788387
 H        -0.7699576586        5.2801560530      -15.4615720067
 H         0.1765758034        5.5417824800      -17.0151061122
 H         0.8939432090        4.6709265650      -15.6056795211
 H        -8.4717005986        4.3926155424      -18.8966102961
 H        -7.3133667789        5.2755899656      -19.9515913749
 H        -6.9387425200        4.8367415076      -18.2683171476
 H        -7.7764171620        1.4609455924      -18.5751013718
 H        -7.1006225954        2.5970897696      -17.4689610433
 H        -6.0861711107        1.4314729082      -18.2891523922
 H        -9.5646587257        1.8225054558      -25.3616684983
 H        -9.9919185121        0.0481271031      -25.1536533102
 H        -9.3832778597        0.6357801153      -26.5485784309
 H        -6.7677750778       -0.7773662750      -26.2939992751
 H        -7.6811144158       -1.6585251951      -24.9920156858
 H        -6.2878260843       -0.7327197794      -24.5652245416
 H        -0.8651223373        2.6135554710      -27.2907579115
 H        -2.4178949571        2.3171032313      -28.1270667787
 H        -1.5016718284        1.0825363218      -27.3027591186
 H        -1.6139315924        1.9226220922      -23.9493751836
 H        -0.7147328725        1.5472048273      -25.3528531391
 H        -1.9993665484        0.4339819390      -24.8684815060
 Na       -1.7766590203       -4.0406579187       -3.2439631012
 Na       -5.1235672630        2.6896014907      -23.2996493449
