232

 C        -2.0087592473        4.6784764418      -25.9200502855
 C        -2.8740499352        3.6842416958      -25.1991458003
 O        -3.5463989893        4.0051851831      -24.2697581376
 C        -2.7381974855        2.1261554265      -25.7135642646
 C        -4.1927624036        1.5837774320      -25.7298360817
 O        -4.6781433427        0.9773802006      -24.7832611031
 C        -5.0424269408        1.9280438382      -26.9532358040
 C        -6.4970653875        1.4104390479      -26.8971227301
 C        -7.1134378483        1.7003265256      -25.4165448986
 O        -6.9125177558        2.8007960233      -24.9135010445
 C        -7.8810068809        0.5065199692      -24.6477227845
 C        -7.7816198847        0.7329288613      -23.0475034311
 O        -6.6784695140        0.6466293346      -22.5133361473
 C        -8.9789774934        1.2560310332      -22.2377873395
 C        -8.5961658624        1.7793306102      -20.8515654025
 C        -7.4360898794        2.8168963872      -20.9207310718
 O        -7.3169735562        3.5467590035      -21.8699491145
 C        -6.5682688301        3.1205490901      -19.5304647816
 C        -5.0733423454        3.2481732287      -19.8548038319
 O        -4.6094869497        2.7482888182      -20.8472221296
 C        -4.3069845118        3.8976558912      -18.7387494967
 C        -2.8544530480        3.4368135738      -18.5540667823
 C        -2.2826890239        4.0526829060      -17.2342861932
 O        -2.8472884050        4.8746327274      -16.6269046080
 C        -0.8614591174        3.6537274745      -16.8892698973
 C        -0.8409591960        2.4118150567      -15.8104379987
 O         0.0074515510        1.5945374675      -15.8408252045
 C        -1.9962789757        2.4888720770      -14.7400680021
 C        -1.4640776916        1.7551977371      -13.4041997814
 C        -2.4725914741        0.6848406697      -13.0305427067
 O        -3.6583708235        0.8380377209      -13.3286584419
 C        -2.0407656444       -0.5560457552      -12.1726615936
 C        -2.5810768548       -0.1401953598      -10.7165113783
 O        -1.7366094403        0.1901874752       -9.8694381634
 C        -4.0540741191       -0.0414131028      -10.5571156091
 C        -4.5209852068       -0.3943220637       -9.1441776754
 C        -4.2402565207       -1.9368253534       -8.7896701412
 O        -3.7871241266       -2.6214096800       -9.7320033056
 C        -4.4722663168       -2.5992958282       -7.4051906280
 C        -3.0908233115       -2.6679615607       -6.4676248603
 O        -3.1746764688       -3.1310095561       -5.3423255573
 C        -1.7227098465       -2.3996866780       -7.1515596957
 C        -0.5517815922       -2.6112588031       -6.1938682981
 C        -0.2863044231       -4.0768300729       -5.9659942798
 O        -1.1942065261       -4.8779959031       -6.1107151591
 C         1.2086402477       -4.6111054749       -5.5766393730
 C         1.5609749109       -4.0659971058       -4.1242805312
 O         0.6932513982       -3.7704333178       -3.3286526989
 C         3.0462535169       -3.5858237372       -3.7164412181
 C         3.0897473118       -2.2144255019       -3.0699848710
 C         2.4213227447       -1.0713701679       -3.8874362156
 O         1.8723137150       -1.2961961752       -4.9677866808
 C         2.4164997243        0.4019213404       -3.2738647707
 C         1.2805375200        0.3192285141       -2.1828529177
 O         1.4941279828       -0.2192449625       -1.0863452557
 C        -0.0550399342        0.9186804137       -2.4474006035
 C        -1.0301493066        0.3590995275       -1.4591119398
 C        -1.3243142670       -1.1854302429       -1.6376300704
 O        -1.4328987609       -1.7022600882       -2.7368952353
 C        -1.5339311165       -2.1812138722       -0.4035206896
 C        -2.9299760834       -2.7864698941       -0.7982596028
 O        -3.0365716761       -3.4898929304       -1.8149635518
 C        -4.1400149985       -2.4637748442        0.0079030838
 C        -4.9605689107       -3.6948372934        0.4788346017
 C        -4.0677071892       -4.6388836097        1.2687641957
 O        -2.8661559865       -4.4059013516        1.5270358548
 C        -4.6206781837       -6.0649285146        1.6570058405
 C        -4.1199256210       -7.0129908958        0.4850551300
 O        -4.9409290820       -7.3175770683       -0.3393182755
 C        -2.6568726093       -7.4341919188        0.4471151505
 C        -2.1987303878       -8.3012786063       -0.7840276633
 C        -2.1529629481       -7.4071190464       -2.0564807024
 O        -1.5238368938       -6.3886520183       -2.0686913455
 C        -2.8846459004       -7.9386254274       -3.3526502829
 C        -3.8317634962       -6.7243525896       -3.8382081079
 O        -3.3373949534       -5.7060772794       -4.3785350671
 C        -5.3104126828       -6.6395080633       -3.4699238003
 C        -6.0453421012       -5.3637691948       -4.0221743549
 C        -7.0424062791       -4.9511134444       -2.9692677454
 O        -6.8354277109       -5.1859310246       -1.7939999440
 C        -8.2947061248       -3.9611540511       -3.4141106975
 C        -7.9095470686       -2.4767401624       -3.1035991331
 O        -7.1347519609       -1.8549566577       -3.8047521293
 C        -8.6445716105       -1.8796114928       -1.9299829644
 C        -8.7494608997       -4.1004545018       -4.8848664434
 C        -9.4399476121       -4.4564647256       -2.4818934767
 C        -1.7917044135       -8.1477208820       -4.3667748757
 C        -3.7572213904       -9.2220046295       -3.3770144181
 C        -4.0783248527       -6.5209679929        3.0508242759
 C        -6.1269700037       -5.9851885351        1.7854699039
 C        -0.4970916371       -3.3192807268       -0.3674440038
 C        -1.4587300803       -1.3647821183        0.8855535813
 C         3.7503439711        0.6675241843       -2.4382488344
 C         2.2506303529        1.4959395158       -4.3759671712
 C         1.1994107257       -6.1571475410       -5.4177137540
 C         2.3228260597       -4.2053273949       -6.6126779447
 C        -5.5401243004       -1.7903198539       -6.6602432099
 C        -4.8805960415       -4.0495797291       -7.7081171903
 C        -2.7396204167       -1.6987575395      -12.8805635461
 C        -0.4664411174       -0.8059117955      -12.0794028911
 C        -0.1440033360        3.0739331130      -18.0973600599
 C        -0.0116946217        4.7681574625      -16.1634752790
 C        -7.2346499484        4.3783668363      -19.0088874891
 C        -6.7725517499        1.9277229644      -18.6146773285
 C        -9.3284484800        0.6738817430      -25.3547360939
 C        -7.2472216196       -0.9198385724      -25.0175794344
 C        -2.1102289276        2.1411364922      -27.1337123439
 C        -2.0152335672        1.4026506757      -24.4817720011
 H        -1.0898403509        4.1732135084      -26.2779230078
 H        -1.5937643662        5.4681245697      -25.2461477877
 H        -2.5777132491        5.0336731723      -26.7978419643
 H        -4.5149719152        1.5507347865      -27.7748181855
 H        -4.9965939879        3.0377437531      -26.9530411631
 H        -6.7188722455        0.3523617493      -27.1794016161
 H        -7.1216457075        2.0377958301      -27.5813629339
 H        -9.5953922883        0.4033197169      -22.1346615693
 H        -9.5317646572        2.0041266058      -22.9318635485
 H        -8.4059891079        0.8945610820      -20.2203471182
 H        -9.4524763192        2.4355930147      -20.4673635520
 H        -4.8220353203        3.8574041049      -17.7322126644
 H        -4.1506631853        4.9415446466      -18.9605224330
 H        -2.4123102321        3.7953572348      -19.4857167620
 H        -2.6326840500        2.3726466233      -18.5931284953
 H        -2.8560075380        1.8612703899      -15.2116337073
 H        -2.2591757049        3.5119151322      -14.5860721394
 H        -1.3429233861        2.3973504589      -12.5545541277
 H        -0.4375720036        1.4410840686      -13.6800992006
 H        -4.5934566673       -0.7165585421      -11.2483861309
 H        -4.3164057444        1.0448678526      -10.8332758909
 H        -5.6792849905       -0.3284949903       -9.0468620541
 H        -4.1595662105        0.1828096879       -8.3779125734
 H        -1.6216290653       -1.3478542950       -7.4215397263
 H        -1.6381079705       -3.0518348398       -8.0355912552
 H        -0.7354553651       -2.2363582579       -5.2162977074
 H         0.3701848983       -2.1322557250       -6.4319093070
 H         3.6431727089       -3.6191406006       -4.6525705063
 H         3.4038918673       -4.3889337563       -2.9712614222
 H         4.1013530626       -1.8023080134       -2.8047166299
 H         2.6366874442       -2.2971437305       -2.0595803218
 H        -0.4488862486        0.7383903185       -3.4262339896
 H        -0.0160445354        2.0305630061       -2.5580106138
 H        -1.9683663895        0.9957621699       -1.4603229294
 H        -0.6742939934        0.5742529231       -0.4465409928
 H        -4.8448005948       -1.7055275271       -0.4589517444
 H        -3.8231132976       -1.9263274829        0.9426224816
 H        -5.3267755194       -4.2083868636       -0.3312835474
 H        -5.7937643786       -3.3184074563        1.1507154735
 H        -2.3765408079       -8.0168213510        1.3196053571
 H        -2.0348352180       -6.5005041631        0.5737837143
 H        -2.7591176332       -9.2215907017       -0.7637517224
 H        -1.2427048000       -8.6787964154       -0.4335031158
 H        -5.4254423692       -6.4094358993       -2.3483229239
 H        -5.9168528013       -7.4949907570       -3.6542488210
 H        -6.5948528951       -5.5997507712       -4.9961371263
 H        -5.3594183307       -4.5665946937       -4.2738660047
 H        -9.6864791810       -1.9457612260       -2.1440357869
 H        -8.4054894248       -0.8372172826       -1.8988136154
 H        -8.4944945459       -2.4903392954       -1.1337388438
 H        -8.0234784192       -3.9240077651       -5.6632649930
 H        -9.5642915705       -3.4619043652       -5.1050149975
 H        -8.9876381436       -5.1585609477       -5.0824556045
 H        -9.7506685420       -5.4660857450       -2.7783621478
 H       -10.4175640658       -3.9463743321       -2.4000704255
 H        -9.0926937191       -4.6359263471       -1.4949471287
 H        -2.1273937955       -8.5995477773       -5.2896797617
 H        -0.9491422611       -8.8103225825       -3.9962863645
 H        -1.2334882825       -7.2177629775       -4.5278368494
 H        -4.3024223514       -9.2101349350       -4.3101651949
 H        -4.6655945493       -9.3704028447       -2.6908952009
 H        -3.1427232535      -10.1330085366       -3.3547795934
 H        -4.2340313627       -7.5631715232        3.0790983188
 H        -4.6171457369       -6.0041491771        3.8277769864
 H        -2.9918509138       -6.3819126474        3.1808413644
 H        -6.3771072639       -5.0135722592        2.2544275202
 H        -6.5070641364       -6.7811563095        2.4313897374
 H        -6.6187155617       -6.1091301981        0.8223599603
 H        -0.2468975030       -3.5141270292        0.7102508349
 H         0.2976755200       -3.0848236505       -1.0848412676
 H        -0.9148101403       -4.3113166388       -0.6267918522
 H        -0.4131548669       -0.9087690763        0.9845081992
 H        -1.6861015374       -1.9109680974        1.7736186600
 H        -2.1520241833       -0.5039295738        0.9040870242
 H         3.9115813180        1.7411806147       -2.3627007352
 H         4.6124550372        0.1722275042       -2.9152212652
 H         3.6868630187        0.3192596329       -1.4222572826
 H         1.6166982179        0.9141721444       -5.0824132721
 H         3.2056056188        1.9046078342       -4.7762926443
 H         1.7003688677        2.3317852666       -3.8669348427
 H         2.1845418914       -6.5605083755       -4.9846008495
 H         0.9609594134       -6.5677031833       -6.3900743849
 H         0.4141537883       -6.3629910008       -4.7060183872
 H         2.0020419933       -4.6259898868       -7.5776977483
 H         3.1660083774       -4.7170557920       -6.2287662033
 H         2.2867353995       -3.1145268365       -6.6391456719
 H        -5.3457581654       -0.7376136674       -6.4292163338
 H        -5.6413952701       -2.1389099550       -5.6995760778
 H        -6.4608457385       -1.9506639467       -7.2405604785
 H        -5.4855200863       -4.0431525011       -8.6438728143
 H        -5.5107680863       -4.4519613178       -6.9557656944
 H        -4.0834283139       -4.7825648027       -7.6970589345
 H        -2.7985880043       -2.6153413653      -12.2326869189
 H        -2.2436538329       -1.9659253446      -13.7513560089
 H        -3.7947554759       -1.4449939971      -13.1433335360
 H        -0.0180211615        0.1756398659      -12.3741020165
 H        -0.3091274725       -1.5596022012      -12.8693958459
 H         0.0212676057       -1.2902735078      -11.2010803890
 H        -0.0019493463        3.6138995230      -18.9640567818
 H        -0.5547959115        2.1062408447      -18.3747255856
 H         0.8678205449        2.7199496863      -17.7315502459
 H        -0.4233956873        5.0212220048      -15.1743178918
 H         0.1490758822        5.5991904082      -16.8091833039
 H         0.9794339493        4.3383942715      -15.9344759392
 H        -8.1480364691        4.1561991529      -18.5677586465
 H        -7.4052249088        5.1452242399      -19.8104564322
 H        -6.6965953352        4.8830866938      -18.1992260611
 H        -7.8045585021        1.6454944908      -18.5527748521
 H        -6.4074643473        2.0844039775      -17.5723153398
 H        -6.2762966353        1.0910377872      -18.9741503836
 H        -9.5640887907        1.6489763085      -25.6430765917
 H       -10.1790748065        0.3932899444      -24.7849115570
 H        -9.2887574386        0.1610062724      -26.3179890209
 H        -7.6486113403       -1.2092764724      -25.9747152832
 H        -7.6658787050       -1.7035952539      -24.4320572764
 H        -6.1355071597       -0.8609997096      -25.0021844751
 H        -1.0297172506        2.1658797745      -27.1255695896
 H        -2.3595024039        2.9742856774      -27.7810955584
 H        -2.3725632599        1.2028772606      -27.7059913075
 H        -2.7405418810        1.1951287139      -23.7537532708
 H        -1.3921569973        2.1731820394      -24.0462375368
 H        -1.4506117486        0.5129602886      -24.7946686747
 Na       -1.6877544173       -4.3197475152       -3.5695241986
 Na       -5.3605318843        2.6321933838      -23.0912561357
