232

 C       -20.8143601556       -7.8487326868       -4.2850894371
 C       -20.2989015209       -6.4793069132       -3.8378650416
 O       -19.3644745397       -6.3628487132       -3.0449000336
 C       -21.1286681636       -5.3014738398       -4.3114063219
 C       -20.2371767386       -3.9747910026       -4.6670091713
 O       -19.9173204221       -3.2311041296       -3.7260485780
 C       -19.7449654351       -3.5817768426       -6.0847226822
 C       -18.3032909483       -4.1509890838       -6.4857085030
 C       -17.4022924125       -4.0689176939       -5.2515169941
 O       -17.2376221475       -5.0328635376       -4.5340995744
 C       -16.4686773298       -2.8185623721       -4.9531437988
 C       -16.3300181100       -2.7834095138       -3.3342256339
 O       -17.3017502816       -2.3441477735       -2.7200229676
 C       -15.1381682953       -3.3414990584       -2.6205516396
 C       -15.2160640157       -3.2310576902       -1.1069104023
 C       -15.7137501490       -4.5652427748       -0.4945869053
 O       -16.7704913014       -5.0401026926       -0.8169979645
 C       -14.8496658472       -5.3618595479        0.5728166526
 C       -13.3189451237       -5.5218125512       -0.1742063999
 O       -12.4229491217       -4.7582364271        0.1347232203
 C       -13.3095481540       -6.4821033769       -1.4385535251
 C       -11.9243232438       -6.8872216811       -1.8939627039
 C       -11.9578407646       -7.8318909082       -3.0749074670
 O       -12.6111334704       -7.6175709288       -4.0616175748
 C       -10.9155623901       -9.1107908781       -2.9687660248
 C        -9.5022630881       -8.4790340102       -2.4962277831
 O        -9.3693195168       -8.3665185156       -1.2867663887
 C        -8.4661223469       -7.9055848266       -3.5282437785
 C        -7.4753458558       -6.8811367479       -2.9093307809
 C        -7.5798509452       -5.5430291539       -3.6348037506
 O        -8.6942679755       -5.0633945710       -3.9383052417
 C        -6.3036600948       -4.6807052096       -3.9490538770
 C        -5.6296610074       -5.2522535996       -5.3365827802
 O        -6.2813501560       -5.8587990092       -6.1369909354
 C        -4.1950850469       -4.8607476919       -5.6720440126
 C        -3.6995560803       -5.1091256748       -7.0559890177
 C        -2.8811194980       -4.0337674656       -7.8774906727
 O        -3.5009196574       -3.3199577486       -8.7014134344
 C        -1.3149610954       -4.0201553002       -7.6661230378
 C        -0.6808822731       -4.8535700643       -8.8600236967
 O         0.2117225997       -5.5884936569       -8.5583219489
 C        -1.2366026858       -4.8077962274      -10.2416890800
 C        -0.4137728201       -5.7310736627      -11.1542173060
 C         0.3726727427       -4.9567026734      -12.1548464073
 O         0.0112188814       -4.0108498512      -12.8168297599
 C         1.8411133244       -5.5939419785      -12.3298535978
 C         2.6967546894       -4.5480956068      -13.1789186314
 O         3.1648122392       -4.8186414913      -14.2706046184
 C         2.9476461043       -3.0801245149      -12.6121725948
 C         3.2281504088       -2.1462383956      -13.8587634353
 C         3.2681947327       -0.5595472162      -13.6715287430
 O         2.2869810192        0.1136584797      -14.0549158730
 C         4.5128099476        0.2567700715      -13.1420947733
 C         5.0403826158        1.2866782988      -14.2693588803
 O         6.1433150464        1.0467902172      -14.8114337342
 C         4.1872469035        2.4961820069      -14.5839300545
 C         4.2556268741        3.6771632395      -13.6114815255
 C         5.6453321391        4.1676438292      -13.1566227988
 O         6.7040814122        3.6106932641      -13.3361263040
 C         5.6524934071        5.5215009331      -12.3117707097
 C         5.7985691749        6.7074398330      -13.3979957787
 O         4.9272445827        7.5251707211      -13.6082511090
 C         7.2404467783        6.7358842289      -14.0470814892
 C         7.4342424389        7.4126577353      -15.4501488052
 C         6.8368542764        6.5705722330      -16.6496596880
 O         6.3167167161        5.4862929405      -16.4635630152
 C         6.9135953314        7.1622190322      -18.0937946751
 C         8.2852055716        6.7307398326      -18.7558799944
 O         9.1145884836        6.0519336905      -18.1470445763
 C         8.6014271826        7.1681357922      -20.2070360162
 C         9.4073561917        6.1810323143      -21.0650176295
 C         8.4576867836        5.1611886308      -21.7280360146
 O         7.2432382658        5.2126033991      -21.6771175318
 C         9.0475630025        3.8770345245      -22.3937090461
 C         8.6452585396        2.6422765919      -21.4481935905
 O         7.5371149269        2.1231005415      -21.4803872809
 C         9.6802340855        2.1952915109      -20.3193614038
 C         9.2834240112        1.0626678438      -19.4382606951
 C         8.0017642618        1.2629893099      -18.6051227334
 O         7.9905209594        1.9677848543      -17.6423789417
 C         6.7937404602        0.2193726281      -18.8735851094
 C         5.5041762775        1.1957972832      -18.9852112697
 O         5.2027115041        1.8195381941      -17.9904227752
 C         4.6179654080        1.0681405710      -20.1905817232
 C         6.9938974205       -0.7260716552      -20.1420542624
 C         6.6601191417       -0.7210019762      -17.5790404004
 C         8.3135106364        3.6896979576      -23.7672210248
 C        10.6267056854        3.8226323330      -22.6557441145
 C         5.8117988485        6.3652683242      -18.8730530021
 C         6.7428106892        8.7474283623      -18.1276921988
 C         4.3189471377        5.8597467649      -11.6888934267
 C         6.7909984733        5.5201401753      -11.3019231689
 C         3.8226498436        1.0460381347      -11.9181918193
 C         5.5849417675       -0.7023310100      -12.6187804011
 C         2.4644979413       -5.8238321055      -10.9229382113
 C         1.7764118181       -6.9334846880      -13.1909674258
 C        -0.9863898197       -2.5473843587       -7.6600129040
 C        -0.9329065343       -4.6015596492       -6.2919665454
 C        -6.7350528263       -3.1821523509       -4.2410096983
 C        -5.3555057947       -4.9034574842       -2.6450266776
 C       -11.5374413273       -9.9377416734       -1.8458776661
 C       -11.0336109948       -9.8851293126       -4.2790187893
 C       -14.5914165162       -4.2618275742        1.6339537772
 C       -15.5281366224       -6.6022518269        1.0966256891
 C       -15.2049351836       -3.2290891266       -5.7564790842
 C       -17.0664617069       -1.4133780411       -5.4546686823
 C       -22.2092495406       -5.4524902843       -5.4792499761
 C       -21.9970494546       -4.9365503655       -3.0422064147
 H       -20.0725327942       -8.2544495845       -5.0810624458
 H       -21.7837375371       -7.8351307761       -4.8249211552
 H       -20.8237680939       -8.4328837090       -3.3721648016
 H       -19.7973264628       -2.5308065488       -6.2136671217
 H       -20.4759474777       -4.0435607893       -6.7586065687
 H       -17.8674240711       -3.4527741470       -7.2313505195
 H       -18.3449744922       -5.1759615225       -6.7944693794
 H       -14.2640967772       -2.8452551413       -3.0204083904
 H       -14.8913690492       -4.4368389161       -2.8893653667
 H       -15.8883765153       -2.4511863660       -0.7631989020
 H       -14.1733784301       -3.0712145571       -0.6312154816
 H       -13.9294764756       -6.0419439510       -2.2568817394
 H       -13.8203497767       -7.4313574447       -1.3110791771
 H       -11.4866933531       -7.4089427127       -1.0984463419
 H       -11.3236203765       -5.9902255763       -2.1745552530
 H        -8.9532595921       -7.3710668512       -4.3194970187
 H        -8.0246286441       -8.7631078367       -3.9574941761
 H        -6.4076401080       -7.1290483605       -2.8701284165
 H        -7.7408006018       -6.6999740900       -1.9054607188
 H        -3.4453218639       -5.2365769619       -4.8855822164
 H        -4.3313931509       -3.7440924793       -5.3637740693
 H        -4.5634291484       -5.2317423581       -7.7605660340
 H        -3.1513746585       -6.0386405596       -7.0659161673
 H        -1.2533860007       -3.7847214254      -10.6275267769
 H        -2.2553535520       -5.1901329163      -10.2849898583
 H        -1.1541719820       -6.2955414085      -11.7494020288
 H         0.1425630761       -6.4834589220      -10.5941146479
 H         3.8794552906       -3.0463661830      -11.9732355302
 H         2.0946213646       -2.7111763735      -11.9700675858
 H         2.5218277976       -2.4456340849      -14.6209487475
 H         4.2157939174       -2.4056059528      -14.2545884919
 H         3.1932420266        2.1568123441      -14.7436849889
 H         4.4969934961        2.9132443646      -15.5020731823
 H         3.4985053648        3.6053872871      -12.7686416834
 H         3.8443292259        4.5251382527      -14.2334213715
 H         7.6062120478        5.7203527699      -14.1837517198
 H         8.0072673308        7.2415246664      -13.4617334576
 H         8.6286489095        7.5824195871      -15.4675547447
 H         6.8584149650        8.3712655777      -15.5102933326
 H         9.2715689618        8.0256258177      -19.9565347192
 H         7.6474887620        7.3783771459      -20.6896585525
 H        10.1178830073        5.6768631860      -20.4054774030
 H         9.8802427120        6.6504414627      -21.9292389138
 H         9.9088118141        3.0623274805      -19.7235676573
 H        10.5721965396        1.9677788627      -20.9167741381
 H        10.0345169927        0.7973583418      -18.6975382064
 H         9.2072142887        0.1242569703      -20.0657077699
 H         3.9106748265        0.1527767449      -20.3013176011
 H         5.3680390240        1.1199013196      -20.9659923773
 H         3.9022974641        1.8286238820      -20.2215596896
 H         6.1483654261       -1.5134553912      -20.1346999441
 H         7.9534791456       -1.2407359591      -20.1315527992
 H         6.9006449461       -0.1228197644      -21.1380411116
 H         5.8906324760       -0.2570066896      -16.9052663799
 H         7.5883141840       -0.8537017412      -16.9829897110
 H         6.5032393513       -1.7062170566      -18.0086335966
 H         7.4318748711        4.3252777711      -23.7455736739
 H         7.9472789956        2.6565826221      -23.7156638289
 H         8.8353596176        3.9939073428      -24.6675160817
 H        10.8957612939        2.9457128666      -23.1490130078
 H        11.0725455733        3.7292364565      -21.6979869203
 H        11.0695006796        4.6464913006      -23.1908762989
 H         4.8225434431        6.7711448069      -18.4469322000
 H         5.7711340291        5.2999321413      -18.5345440331
 H         5.5856273611        6.4434843313      -19.9284401247
 H         7.5457524068        9.2424465693      -17.5682784195
 H         5.8122457641        9.0080604047      -17.6579294449
 H         6.7646472840        9.0970992244      -19.1744302977
 H         4.5923724879        6.5250653763      -10.9049514612
 H         3.9760511915        4.9198127441      -11.2098942359
 H         3.4506224757        6.0914585839      -12.3443719223
 H         6.5973962439        4.9957853953      -10.3936081321
 H         6.9343165165        6.5861599809      -11.0418540142
 H         7.6894831504        5.2364099283      -11.8188057935
 H         4.7637747436        1.5093941654      -11.4052488572
 H         3.3187284145        0.3447873601      -11.1965329497
 H         3.1994978253        1.8613610487      -12.2168390652
 H         5.3257700279       -0.9988862623      -11.5592020485
 H         6.5870858306       -0.3811306182      -12.7701467750
 H         5.6702753923       -1.6674345996      -13.1842710857
 H         2.3118547168       -6.8736268973      -10.5888666514
 H         1.9598552215       -5.1934927382      -10.2190144038
 H         3.4985522289       -5.4414570713      -10.9777791165
 H         0.7360991700       -7.2552387046      -13.3605276402
 H         2.3000832294       -7.7472996062      -12.7911081707
 H         2.0761246927       -6.7174789525      -14.1889518197
 H        -1.5655380880       -2.1066049035       -6.7680369741
 H        -1.3028002475       -1.9925222999       -8.5722193860
 H         0.0989850247       -2.3788982029       -7.4670875134
 H        -1.1055441023       -5.6944702075       -6.2450981299
 H        -1.6322586975       -4.2549838772       -5.5192663477
 H         0.0408646926       -4.5099793403       -5.8671778119
 H        -7.6964885283       -3.2032665220       -4.7533096652
 H        -5.9342653654       -2.7387232931       -4.8309845061
 H        -6.9243474081       -2.5856843247       -3.4251768496
 H        -5.9987879139       -4.7721531838       -1.7742652644
 H        -4.7075156550       -4.0444732459       -2.5449050047
 H        -4.7639199660       -5.8143830738       -2.5867111802
 H       -12.5691105221       -9.7225298359       -1.8373001448
 H       -11.2599824742       -9.7135907663       -0.8052164415
 H       -11.4625771628      -11.0278165857       -2.0154718340
 H       -12.0987193405      -10.2307437403       -4.2239412291
 H       -10.3907544433      -10.7377564477       -4.2990778941
 H       -11.1137123594       -9.2974670124       -5.1639129009
 H       -15.4064939905       -4.1854383723        2.2738551547
 H       -14.4287088832       -3.1769074602        1.3100061583
 H       -13.7830190375       -4.5281934548        2.3004944575
 H       -15.4618461081       -7.2852140830        0.2951333299
 H       -16.4998838942       -6.3235566752        1.3864259779
 H       -15.0063123108       -7.0390398622        1.9926656384
 H       -14.7289492118       -4.1034259181       -5.3464422173
 H       -14.4899678170       -2.3303374140       -5.6643620273
 H       -15.3715930374       -3.3149032648       -6.8153255939
 H       -17.8878208389       -1.0865484280       -4.8618203977
 H       -17.2246254706       -1.5753417082       -6.5982479586
 H       -16.2543820885       -0.7021948348       -5.1696167147
 H       -21.9032987463       -5.8273836786       -6.3656456763
 H       -22.5498061047       -4.4454469420       -5.7394641653
 H       -23.1104764983       -5.9696171760       -5.1542901666
 H       -22.9527390744       -4.4384042139       -3.2017650887
 H       -21.4858019951       -4.3166967906       -2.2912951894
 H       -22.2500780753       -5.8979345378       -2.5476614368
 Na      -18.3053991668       -4.5104686092       -2.3704001309
 Na        6.6224602706        2.7272901801      -16.0356336611
