232

 C        -2.5172657662        4.8315411605      -25.6392560594
 C        -3.0826471823        3.5234953086      -25.0250009092
 O        -3.7235233836        3.5556825029      -23.9904009669
 C        -2.9213145647        2.1514357218      -25.5659511708
 C        -4.2984801491        1.4745748893      -25.7275511850
 O        -4.8384202140        1.0272589332      -24.6988781224
 C        -5.0883135686        1.5152180519      -27.0647871556
 C        -6.5713945021        1.1590732308      -26.8038479838
 C        -7.0845553631        1.3840905504      -25.3898838822
 O        -7.0767054919        2.5513160846      -24.9359234336
 C        -7.9866903746        0.3837000695      -24.4575611249
 C        -7.8772537502        0.8581941994      -23.0821599663
 O        -6.7892972124        0.6353817902      -22.4766132720
 C        -8.9223309621        1.8112946704      -22.2849295164
 C        -8.5583950307        1.8846614913      -20.7765212832
 C        -7.4523686279        2.8922168804      -20.5961993139
 O        -7.0990270348        3.5396465413      -21.5909077737
 C        -6.6516733521        3.0702825886      -19.3054866132
 C        -5.1227525427        3.2848059128      -19.6747761927
 O        -4.6998826592        2.6668208571      -20.6550761156
 C        -4.2262835891        4.1911098962      -18.8802504244
 C        -2.9393946575        3.4487261707      -18.5900511475
 C        -2.2070937607        4.1266012238      -17.4187818013
 O        -2.8221109478        4.8106803225      -16.6461374637
 C        -0.6817113656        3.7985440993      -17.0818657931
 C        -0.5647147465        2.5985061659      -15.9764638377
 O        -0.0226358837        1.5216317319      -16.2176998370
 C        -1.5340584621        2.7235271155      -14.7629148486
 C        -1.2062683661        1.6379250815      -13.7280460681
 C        -2.3116176656        0.6677243209      -13.3639640854
 O        -3.3449791786        0.5145877508      -13.9423415986
 C        -1.9244571159       -0.4009302398      -12.0809290327
 C        -2.6179569325        0.2524188664      -10.8341592310
 O        -1.8844399072        0.8605555217      -10.0196759433
 C        -4.0360558649        0.0080712966      -10.3308272006
 C        -4.3383679385       -0.4024813936       -8.8202708789
 C        -4.2236701871       -1.9788886246       -8.7007472863
 O        -3.8360425342       -2.7150338655       -9.6547267286
 C        -4.6004634431       -2.4885110739       -7.3663767647
 C        -3.2616198420       -2.4820562118       -6.4584858587
 O        -3.2141449538       -2.2841962257       -5.2894351802
 C        -1.9348436753       -2.5408554920       -7.3322636815
 C        -0.6529829936       -2.6480038104       -6.4770491320
 C        -0.3496987696       -4.1363282228       -6.1992208379
 O        -1.1878080795       -5.0160114891       -6.1193443320
 C         1.3458484047       -4.4053226992       -6.0514768065
 C         1.6628314397       -3.6825785172       -4.6825889314
 O         0.8474218122       -3.6296896086       -3.7599054914
 C         3.1161997703       -3.3820672006       -4.1983700737
 C         3.1191923568       -2.2093650920       -3.1257357589
 C         2.5667495064       -0.8676015230       -3.7750270522
 O         2.0448597131       -1.0237764081       -4.8971395266
 C         2.7030462154        0.5218492542       -3.0450425755
 C         1.4415757906        0.3902632261       -2.0796013959
 O         1.6179595685        0.2053251971       -0.8900903317
 C         0.0502010325        0.5005059526       -2.5899717858
 C        -1.0533705566       -0.0148393272       -1.6050375633
 C        -1.2853179024       -1.4842327179       -1.8505122983
 O        -1.1976701649       -1.9204299519       -2.9758832152
 C        -1.6452859152       -2.4012159507       -0.6320271433
 C        -3.0226482349       -3.1193147506       -0.8190901462
 O        -3.2529675255       -3.9872725333       -1.6412012826
 C        -4.2241909197       -2.6380842133        0.0328963681
 C        -5.0759270926       -3.8038978271        0.5044007994
 C        -4.1691823503       -4.8325968169        1.1115963218
 O        -2.9750792498       -4.5844485740        1.1046253310
 C        -4.7279111825       -6.2505874802        1.6675763470
 C        -4.2979937159       -7.3022469683        0.5375279654
 O        -5.0175426974       -7.7132848140       -0.3029467531
 C        -2.7710502433       -7.6784539346        0.5012612706
 C        -2.3457395866       -8.2928261229       -0.8578121350
 C        -2.2969352858       -7.2606854936       -2.0804021751
 O        -1.6393542423       -6.2928388874       -1.9398169822
 C        -2.8228853325       -7.6899585867       -3.4426543044
 C        -3.7569023280       -6.5201745330       -3.7509722684
 O        -3.4450492651       -5.4546643600       -4.3534053175
 C        -5.1898894409       -6.5905858999       -3.4039411540
 C        -5.9600323413       -5.3066504837       -3.7191591690
 C        -7.0487855176       -5.0429400175       -2.7334219868
 O        -6.9182051341       -5.3095413657       -1.5459940877
 C        -8.3388036257       -4.1578273958       -3.2028580606
 C        -7.7983946671       -2.7703684267       -2.8441740183
 O        -6.7535211890       -2.4318332870       -3.4234306437
 C        -8.6842912790       -1.8324220578       -2.0824979201
 C        -8.6329326526       -4.4404537196       -4.6943857406
 C        -9.6092359094       -4.6411105854       -2.4477433929
 C        -1.5949648253       -7.7110219358       -4.4086341832
 C        -3.4162303336       -9.0984241052       -3.5244648740
 C        -4.0118340106       -6.3978531735        2.9873275216
 C        -6.2682391000       -6.3730648421        1.7846752783
 C        -0.5309101130       -3.4703517468       -0.5698191169
 C        -1.4951600854       -1.6150890040        0.7207991815
 C         3.9636820679        0.7577037419       -2.3092030374
 C         2.4355531790        1.6017276428       -4.1062113464
 C         1.8318661685       -5.8245249040       -5.8092478354
 C         1.9764181309       -3.7340995541       -7.2962625057
 C        -5.8301238616       -1.7043417152       -6.7003272129
 C        -5.1390661892       -3.9637753859       -7.4665804838
 C        -2.5755447991       -1.7437803785      -12.5251198609
 C        -0.3955522337       -0.3892372410      -11.8635505576
 C         0.0954573727        3.2327534019      -18.2992901297
 C        -0.0807668882        5.1256310239      -16.5690070159
 C        -7.4238812020        4.3705283017      -18.7568168764
 C        -6.8047401729        1.8606136731      -18.3709405272
 C        -9.3525179439        0.4082426995      -25.1253602713
 C        -7.4317041698       -0.9693349725      -24.6897749742
 C        -2.0761154326        2.2730080060      -26.8475003475
 C        -2.2260124994        1.3263052368      -24.4118094520
 H        -1.5001189850        4.9811724225      -25.3194019375
 H        -3.1041880354        5.6503198887      -25.1720720219
 H        -2.5429182568        4.7238828913      -26.7341160063
 H        -4.7424685716        0.8232356663      -27.7789450907
 H        -4.8979375122        2.5663388424      -27.4893664078
 H        -6.8202932638        0.0974063538      -27.0866590770
 H        -7.1273647510        1.8281120385      -27.4910568417
 H        -9.8540307804        1.4120765142      -22.4450702539
 H        -8.8392077380        2.8700245010      -22.8041840710
 H        -8.0694404154        0.9936776874      -20.3999869671
 H        -9.5020873648        2.0938730020      -20.1492063908
 H        -4.6546190479        4.5397799717      -17.9287322832
 H        -4.1856938628        5.0994233953      -19.5966392533
 H        -2.3875225032        3.2874521982      -19.5239473714
 H        -3.1909528436        2.3945518473      -18.4495116956
 H        -2.6520780437        2.6741382434      -14.9990099897
 H        -1.4290000617        3.6822315970      -14.3250916151
 H        -0.7376215973        2.0951078118      -12.8802445533
 H        -0.4740009434        0.8986159332      -14.1327742024
 H        -4.6134437309       -0.6079095358      -11.0616305044
 H        -4.5849686081        0.9883753367      -10.3200780196
 H        -5.3366779162       -0.0898036883       -8.5285815664
 H        -3.6635139802        0.1054004705       -8.0775380112
 H        -1.8678132981       -1.5868683796       -7.8936075943
 H        -2.0260325252       -3.3966715243       -8.0246078816
 H        -0.7183910629       -2.0540758976       -5.5746992475
 H         0.2383973941       -2.3224020806       -6.9843898707
 H         3.7373134893       -3.0519554769       -5.0209286034
 H         3.5958788908       -4.2933706377       -3.7236895980
 H         4.1894189188       -2.1531753844       -2.7446886707
 H         2.5073296920       -2.2145274128       -2.1536877174
 H        -0.0902729012       -0.0936328378       -3.5732304648
 H        -0.2425937225        1.5386683279       -2.9318783384
 H        -2.0387437503        0.4277703488       -1.8329855422
 H        -0.8082960459        0.3526899700       -0.6344207364
 H        -4.8142999077       -2.0343356687       -0.7425846025
 H        -3.9915269379       -1.9761676865        0.9119311630
 H        -5.5090862608       -4.2513705082       -0.3210121582
 H        -5.8121392797       -3.4793220319        1.2680155251
 H        -2.5930965578       -8.3048623989        1.3492546242
 H        -1.9842600567       -6.9323645552        0.6127776615
 H        -2.8174401907       -9.2395125709       -0.9377693324
 H        -1.3327321492       -8.6224480470       -0.8284909584
 H        -5.1559861213       -6.7120463000       -2.2232710917
 H        -5.7412987012       -7.4248058378       -3.7807916946
 H        -6.2868634169       -5.3940226683       -4.7956457422
 H        -5.2516783371       -4.4989222842       -3.7528200773
 H        -9.0097421752       -1.1881830025       -2.8528751993
 H        -8.1492083739       -1.1798164432       -1.4259673500
 H        -9.5204650468       -2.3275615584       -1.6504347123
 H        -7.8240501770       -4.2783690417       -5.4304003355
 H        -9.4387373189       -3.7312957710       -5.0461228951
 H        -9.0183019616       -5.4044939857       -4.9252587344
 H        -9.8395392131       -5.7321150859       -2.5957821983
 H       -10.5242177414       -3.9633563500       -2.5689921315
 H        -9.4559778742       -4.6258499635       -1.3591326964
 H        -1.8461517255       -8.0760046165       -5.3540127391
 H        -0.8478889012       -8.4354594048       -4.0423080144
 H        -0.9941071919       -6.7744000800       -4.5211146237
 H        -3.5211414297       -9.2519408146       -4.5604756561
 H        -4.3426107114       -9.3719709450       -2.9429952856
 H        -2.8280220719       -9.9163705336       -3.1670941288
 H        -4.3286493527       -7.3687742325        3.3612061874
 H        -4.3074341326       -5.6859277134        3.8286412804
 H        -2.8789448872       -6.2683392479        2.8297528583
 H        -6.6355313154       -5.7756120603        2.6265718288
 H        -6.5091841376       -7.4295204451        1.8771188865
 H        -6.7534979638       -5.9064659451        0.9221856628
 H        -0.5143542447       -3.9964212767       -1.4856928522
 H        -0.6858873016       -4.1301177395        0.2977243087
 H         0.4279956948       -2.9807476476       -0.3826168982
 H        -0.3780962023       -1.3406431819        0.8042391511
 H        -1.7598963492       -2.1745312543        1.6327117721
 H        -2.2055528507       -0.7361444868        0.6288877259
 H         3.9479932385        0.3121473563       -1.2829883107
 H         4.1130987795        1.8169947075       -2.2556077968
 H         4.8057379561        0.2416348055       -2.7974316424
 H         1.3734285260        1.9584675296       -4.1446519138
 H         2.6119716526        1.2904916611       -5.1460130967
 H         3.1101851751        2.4574395547       -3.8492342550
 H         2.9180010698       -5.9233554791       -5.9727460973
 H         1.2923735274       -6.4576877410       -6.4814703268
 H         1.7928178841       -6.0616560350       -4.7742009307
 H         1.2821730201       -3.6094973424       -8.1127891723
 H         2.8001027490       -4.2960463783       -7.6047356728
 H         2.0425654841       -2.7612707286       -6.9770543169
 H        -5.7095749545       -0.5781770904       -6.5967757831
 H        -6.0078643059       -2.0199771436       -5.7026676395
 H        -6.7829019792       -1.9257344489       -7.2742940791
 H        -6.1464890472       -4.1071965519       -7.0411481365
 H        -4.4807512843       -4.6875150322       -7.0385512907
 H        -5.2364602186       -4.2735500050       -8.5204837597
 H        -3.0244733470       -2.2436265962      -11.6398619699
 H        -1.8959454739       -2.4789909129      -12.8002781516
 H        -3.3954665928       -1.6483962514      -13.3166413851
 H        -0.1335303631        0.5276619731      -11.4116625697
 H         0.0560225633       -0.4897588309      -12.8346861097
 H        -0.1561541306       -1.2917743113      -11.2738091529
 H         0.1368840468        3.8395916447      -19.1742506133
 H        -0.3266623135        2.2514345576      -18.6299144890
 H         1.1605087534        2.8834282477      -18.1099326577
 H        -0.7893043506        5.5612153750      -15.9119674028
 H         0.0080481587        5.8047040509      -17.3589037237
 H         0.8980771797        5.0129896285      -16.0941268036
 H        -8.4056045024        4.2513159342      -19.0252643136
 H        -7.1556851142        5.2438593832      -19.3447782576
 H        -7.3529004186        4.7074520119      -17.7675301251
 H        -7.7717508056        1.9123552902      -17.9689778071
 H        -6.1159086144        1.7747552968      -17.4914794994
 H        -6.7158173697        0.9039136001      -18.8727235935
 H        -9.8608062326        1.3863420682      -25.1419483735
 H       -10.0524198797       -0.1697914756      -24.5434406692
 H        -9.2576966617       -0.0138019661      -26.1976675541
 H        -7.6100143999       -1.2068918096      -25.7328450706
 H        -8.0519746408       -1.6169255187      -24.1175237452
 H        -6.3869030305       -0.9787964195      -24.4961675881
 H        -1.0536055485        2.5872756029      -26.6755776325
 H        -2.5555485511        2.8939514110      -27.5668258995
 H        -2.1405914334        1.3217766564      -27.3597486543
 H        -2.5261491148        1.8537031891      -23.4791793804
 H        -1.1983012231        1.3448532120      -24.6284211425
 H        -2.6429045448        0.3101510508      -24.3559584712
 Na       -1.7779798528       -4.1593465080       -3.4777327578
 Na       -5.3478270013        2.4848639631      -22.8457534708
