232

 C        -2.8798230964        4.7670128058      -25.4983783985
 C        -3.3554915181        3.5244618768      -24.8408718346
 O        -4.0073944736        3.5897398385      -23.8001438818
 C        -2.9584850452        2.0893411961      -25.4567041294
 C        -4.4052596132        1.3892340828      -25.5200306993
 O        -4.8359772576        0.5843416464      -24.6793945357
 C        -5.3024954518        1.5588326058      -26.7478642148
 C        -6.6468451758        0.9006969208      -26.6550004295
 C        -7.1207747813        1.2719596861      -25.2692162604
 O        -6.9185967800        2.4578397239      -24.9302132090
 C        -8.0161548385        0.3698656199      -24.4129501542
 C        -7.8931741895        0.8892971635      -22.9630740139
 O        -6.9816477886        0.3395454064      -22.2859998918
 C        -9.0813099561        1.7219595909      -22.2648390274
 C        -8.8540611863        2.1878673444      -20.8208125884
 C        -7.5284664600        2.9952887383      -20.8296370726
 O        -7.1366799738        3.7758679432      -21.6863956313
 C        -6.7700589866        3.1357138593      -19.3884060427
 C        -5.1696957975        3.1905015869      -19.6022641736
 O        -4.6036490748        2.6855749173      -20.5947623740
 C        -4.3972396921        3.6370274252      -18.3404950895
 C        -2.8619148878        3.6865376734      -18.5837491242
 C        -2.1095320976        4.2744060456      -17.3199417626
 O        -2.7663537537        4.8227739707      -16.5142199366
 C        -0.5766241029        3.8905830360      -17.1913272544
 C        -0.5700708045        2.5539629268      -16.1619696828
 O         0.0936930307        1.5667238258      -16.3851651374
 C        -1.2815388225        2.7328344423      -14.7683662940
 C        -0.7722178751        1.7690593127      -13.7420709200
 C        -1.9558337879        0.7244268079      -13.4395416443
 O        -2.9175635228        0.6353639128      -14.1609532628
 C        -1.8907289093       -0.2173639456      -12.0677660351
 C        -2.6478234716        0.3682227190      -10.8930328721
 O        -2.0956614101        1.2369236076      -10.1561651732
 C        -4.1833813569        0.0736275945      -10.5107997897
 C        -4.3755883818       -0.3426345695       -9.0373968578
 C        -4.3144551068       -1.8432456563       -8.7204393235
 O        -4.2700677816       -2.6638218977       -9.6468068698
 C        -4.5746844317       -2.3058887573       -7.2773618625
 C        -3.2161518451       -2.2615924979       -6.4186956992
 O        -3.3199232660       -2.2653605456       -5.2138441611
 C        -1.9817730099       -2.7367912527       -7.2145500296
 C        -0.6622756513       -2.6534452089       -6.4072093869
 C        -0.0351672754       -4.0305489065       -6.3023553467
 O        -0.8316713251       -4.9557738121       -6.1026991278
 C         1.5293380810       -4.2041346939       -6.2897706382
 C         1.7717630140       -3.6424119342       -4.8067177981
 O         0.8997379379       -3.6740700424       -3.9871419105
 C         3.2477278332       -3.1791035742       -4.5521912119
 C         3.3089332811       -2.0459224297       -3.4805038654
 C         2.6413992941       -0.7167969509       -3.9693287706
 O         1.9799756150       -0.6680582731       -5.0240234412
 C         2.8210345499        0.5304496700       -3.0712654485
 C         1.5068952812        0.4330810760       -2.0741667837
 O         1.6739264066        0.4547203623       -0.8594389151
 C         0.1199758792        0.5170658599       -2.7552197902
 C        -0.9782857122       -0.0534106080       -1.7675663583
 C        -1.3579979865       -1.5901791689       -1.8516660821
 O        -1.3623578499       -2.1948887219       -2.8853410099
 C        -1.7151754085       -2.4664747261       -0.5151132132
 C        -3.1295281473       -3.0640544227       -0.8837867992
 O        -3.2271150554       -3.7877296872       -1.8751134725
 C        -4.3174005316       -2.6862801583       -0.0242471832
 C        -5.1160036982       -3.9155391029        0.5147308497
 C        -4.1134906392       -4.9315342664        1.1365332405
 O        -2.8869830464       -4.7436367997        1.1539892174
 C        -4.7176637058       -6.3210947093        1.6061200023
 C        -4.2501937604       -7.4511295205        0.5065998465
 O        -4.9969741577       -7.9845688521       -0.2428313794
 C        -2.6943851534       -7.6332246278        0.4333857531
 C        -2.3199730835       -8.3926065443       -0.9479670213
 C        -2.0833422299       -7.3414305438       -2.0431424546
 O        -1.5248850147       -6.2329294981       -1.9001072448
 C        -2.7020537082       -7.5634894383       -3.4676306124
 C        -3.7645318855       -6.5034965174       -3.7878878473
 O        -3.4301970839       -5.6453119667       -4.5812637258
 C        -5.1797934576       -6.6778471979       -3.2753843042
 C        -6.0615875411       -5.3648760054       -3.4248565169
 C        -7.3233962646       -5.2935405231       -2.5619028039
 O        -7.5219870034       -5.9618437119       -1.5559005453
 C        -8.4222522355       -4.2945885944       -2.9784836101
 C        -7.9073860517       -2.8219267965       -2.8027763107
 O        -6.7922171056       -2.6064310124       -3.2380328030
 C        -8.7798416680       -1.6467241159       -2.2863509876
 C        -8.7017554329       -4.3898542666       -4.4476538030
 C        -9.7343529771       -4.5592633670       -2.2366096608
 C        -1.5465219971       -7.4649307272       -4.4739832472
 C        -3.3055528064       -9.0126990524       -3.6724929563
 C        -4.0927393113       -6.7915897695        2.9291948627
 C        -6.2636042144       -6.3969385056        1.6589378644
 C        -0.6967899988       -3.6089881698       -0.5115523733
 C        -1.6696251774       -1.6509309275        0.8379372472
 C         4.1060055779        0.5014388701       -2.1433808056
 C         2.6818031507        1.8296708004       -3.8915108125
 C         1.8447907786       -5.6873163582       -6.5432836486
 C         2.3812504599       -3.3675813347       -7.3421862269
 C        -5.6119142675       -1.4917787467       -6.4806370452
 C        -4.9903833564       -3.8163261827       -7.3152151780
 C        -2.4278962231       -1.6797782871      -12.3600073720
 C        -0.3770675183       -0.4341028132      -11.6334757551
 C         0.0228545394        3.6327953929      -18.5524317283
 C         0.1716665002        4.9951346341      -16.4058956211
 C        -7.2205661137        4.4426490028      -18.6568471675
 C        -6.9851048244        1.8776116246      -18.4879971188
 C        -9.5113011798        0.4191336525      -24.9528481155
 C        -7.4185837122       -1.0622777919      -24.5571276800
 C        -2.3017367616        2.1926604474      -26.8414975236
 C        -2.0182544097        1.3355962723      -24.3755014423
 H        -1.7862828303        4.7023877532      -25.3746584293
 H        -3.3592486722        5.6386746321      -25.0152002208
 H        -3.0665619124        4.6631154808      -26.5589899972
 H        -4.6615298245        1.2012237981      -27.5881549982
 H        -5.3977568341        2.6667823502      -26.8947505193
 H        -6.6112819220       -0.1498166001      -26.8476261848
 H        -7.3511087928        1.3425089956      -27.3189600900
 H        -9.8949431142        1.0120382414      -22.2538866845
 H        -9.2881671574        2.5397856107      -22.9985615131
 H        -8.7504084640        1.4189819117      -20.0941166042
 H        -9.7085199335        2.7629775229      -20.5518477355
 H        -4.6743387657        3.0046646781      -17.4303572709
 H        -4.6538139230        4.6625595417      -18.0125809687
 H        -2.8489922646        4.2678416160      -19.5342873137
 H        -2.4465995250        2.7550469007      -18.9539028895
 H        -2.3740982786        2.5535920664      -14.8870621136
 H        -1.2782096689        3.7303822884      -14.4441174110
 H        -0.4991210802        2.3256342289      -12.8573212478
 H         0.1245018456        1.2485596891      -14.1401265481
 H        -4.7271977980       -0.5972117738      -11.0944161301
 H        -4.5674102347        1.0823859683      -10.6859304457
 H        -5.3654857353       -0.0640563002       -8.4907509482
 H        -3.6246888175        0.0482222446       -8.4793439385
 H        -1.8970541926       -2.1478687612       -8.1104272034
 H        -2.2832055970       -3.7571332320       -7.5500592123
 H        -0.9630925910       -2.4098467989       -5.3329233409
 H         0.1406163563       -1.9333741967       -6.7664099516
 H         3.6788933484       -2.8763688942       -5.4812959888
 H         3.7569088533       -4.0199670496       -4.1718559686
 H         4.3576599030       -1.7435095163       -3.4053693970
 H         2.9615708592       -2.2967234495       -2.4842833409
 H         0.0215565055       -0.0101370254       -3.7298659723
 H        -0.2257484481        1.6080709422       -2.7650065725
 H        -1.8874944610        0.5137481160       -1.8812954014
 H        -0.6028970423        0.1789378928       -0.7735237714
 H        -5.0121752816       -2.1104421406       -0.5602649316
 H        -3.9898064681       -2.1557972328        0.8400347564
 H        -5.6080606095       -4.4506611239       -0.2759410033
 H        -5.9080644484       -3.4942791526        1.2843495429
 H        -2.1483224933       -8.1622476008        1.2166844815
 H        -2.0803676974       -6.6979939345        0.4458261048
 H        -3.1105257568       -9.1660178522       -0.9879331271
 H        -1.4381198003       -9.0383647585       -0.8441362073
 H        -5.0366610242       -6.8403278109       -2.2230794573
 H        -5.6152954512       -7.6217731642       -3.6636348284
 H        -6.3376455921       -5.2402754471       -4.4752412178
 H        -5.3781974094       -4.5522809740       -3.2490498544
 H        -9.4342140932       -1.2690582391       -3.1493622583
 H        -8.1695211243       -0.7824868815       -1.8265751204
 H        -9.4021821344       -1.9990850462       -1.4259434206
 H        -7.9592791100       -3.9596859660       -5.1254442651
 H        -9.6624863029       -4.0189623372       -4.6970871486
 H        -8.9064026132       -5.4453765195       -4.7253128503
 H        -9.9872030736       -5.5828524847       -2.4016426001
 H       -10.5882997079       -4.0541024196       -2.6802918047
 H        -9.7216814791       -4.3420022691       -1.2184783139
 H        -1.7753917124       -7.1366286555       -5.4502965346
 H        -0.9302021845       -8.3769507715       -4.5372906288
 H        -0.8651721445       -6.6925940953       -4.1122249085
 H        -3.6915773292       -9.2538005546       -4.6307541883
 H        -3.9168427275       -9.4538184152       -2.8446435201
 H        -2.5205173982       -9.7348339790       -3.5924928898
 H        -4.2036847363       -7.8007313158        3.1438069275
 H        -4.4744012207       -6.2913053144        3.7775440500
 H        -3.0529093745       -6.4901741052        2.7901362783
 H        -6.6901844651       -5.4390552190        1.9671524772
 H        -6.6032754233       -7.1768284739        2.3218414429
 H        -6.6339024605       -6.5124989709        0.6592036580
 H         0.2883814264       -3.2705772532       -0.0866607666
 H        -0.4840175987       -3.9860566983       -1.5239990996
 H        -1.0869446472       -4.4073618026        0.1187300923
 H        -0.6092949225       -1.3883103329        0.9643440907
 H        -1.9050309040       -2.3259863108        1.5812375197
 H        -2.2450523972       -0.7554234540        0.8077943328
 H         4.9270578395       -0.1802488119       -2.3008827137
 H         3.7746355354        0.3814519682       -1.0899021771
 H         4.5716204883        1.4697819118       -2.2091695147
 H         1.8860042895        1.6653689914       -4.6072999631
 H         3.5414289055        1.8903075810       -4.5074100659
 H         2.4751885024        2.7441358555       -3.3466707038
 H         2.7171117109       -6.1031602729       -5.9584191853
 H         1.8308361643       -5.9153574918       -7.6027128518
 H         1.0229428093       -6.1571379074       -6.0290755224
 H         1.9924388690       -3.8418145549       -8.3156229247
 H         3.4479383685       -3.5661255797       -7.1907568017
 H         2.0133467833       -2.2965256679       -7.3491669784
 H        -5.3041323373       -0.4684220860       -6.2257778015
 H        -5.9187681480       -2.0597479489       -5.6955789952
 H        -6.6010669175       -1.3689865677       -6.9761765050
 H        -4.8453248867       -4.4215627817       -6.3787743805
 H        -4.3852560468       -4.3148996468       -8.0171710026
 H        -6.0410265205       -3.9290604416       -7.5866536127
 H        -2.1612720999       -2.5855895063      -11.7543174504
 H        -2.0639226295       -1.8911658809      -13.2926553491
 H        -3.4947627076       -1.6101019108      -12.6244889288
 H         0.0294723413        0.5819290007      -11.4338006243
 H         0.1952625920       -0.8732948131      -12.4512130927
 H        -0.4476437012       -0.9521051892      -10.6947497805
 H        -0.0099836854        4.4088360842      -19.2344061568
 H        -0.5162657239        2.8441307806      -19.0627735293
 H         1.1230018213        3.3774383052      -18.5338910757
 H        -0.4247694098        5.3938494148      -15.5319143204
 H         0.4249877327        5.8870053014      -16.9808704423
 H         1.1267761900        4.4958255327      -16.1388026581
 H        -8.2395523196        4.5494823700      -18.3142943993
 H        -7.0081646003        5.4763720706      -19.1137981563
 H        -6.5223921097        4.4643388784      -17.7630939161
 H        -8.0631960454        1.6312100426      -18.3792981112
 H        -6.7407313643        2.1007585752      -17.3931483622
 H        -6.4165167174        1.0209314410      -18.7675845595
 H        -9.8121317190        1.4298631588      -24.8840947465
 H       -10.2440277183       -0.2642549233      -24.5150993053
 H        -9.5661256848        0.1054642214      -26.0409525298
 H        -7.5073309562       -1.3448562633      -25.6160275208
 H        -7.9161295306       -1.6755077607      -23.8071730099
 H        -6.3044867634       -0.9356458410      -24.3854484506
 H        -1.3678800235        2.6841942905      -26.6562660315
 H        -2.9285897136        2.7312538339      -27.5773102905
 H        -2.0725819675        1.1680006473      -27.2717189520
 H        -2.6199618968        0.9103256007      -23.5931208110
 H        -1.3062318293        2.1300741861      -24.1718623425
 H        -1.3860215391        0.5875507508      -24.9342883813
 Na       -1.7001307750       -4.2549725159       -3.8614044758
 Na       -5.5601130417        2.2286760576      -22.8275312421
