232

 C        -2.8787353782        4.7406376468      -25.5009882584
 C        -3.4332405733        3.4201483334      -24.8590510901
 O        -4.0508099627        3.4619321571      -23.8296982729
 C        -3.0152042896        2.0270042104      -25.4500100770
 C        -4.3185868186        1.1958368641      -25.5058801634
 O        -4.7358099839        0.5694781930      -24.5301973403
 C        -5.2485896673        1.5721806208      -26.7572930668
 C        -6.5634841777        0.9234922686      -26.6504147454
 C        -7.2357308066        1.3562349300      -25.3182865078
 O        -6.8909376262        2.3930333467      -24.7509272321
 C        -8.0717146070        0.3120687763      -24.4444128117
 C        -8.0059145321        0.7211805210      -22.8375041671
 O        -7.0997847445        0.3881953608      -22.0857967059
 C        -9.0719126315        1.7948134705      -22.2817252489
 C        -8.8068200743        2.2681562977      -20.8316932695
 C        -7.5978638560        3.1062666117      -20.6860037825
 O        -7.2251345551        3.6358768420      -21.7160833696
 C        -6.7169209781        3.1503208638      -19.3503776021
 C        -5.2060784786        3.1495467112      -19.5307345351
 O        -4.7217236987        2.7492069868      -20.5757450142
 C        -4.3298433012        3.4712074595      -18.3622120639
 C        -2.8408394594        3.7619661161      -18.5656380350
 C        -2.0836808721        4.1676203986      -17.2733295767
 O        -2.6390130049        4.8744909977      -16.4177525193
 C        -0.5176381612        3.8422558141      -17.1298623270
 C        -0.4172422282        2.6231487699      -16.1989148389
 O         0.1158548076        1.5671113431      -16.5538603791
 C        -1.1917875697        2.7130467928      -14.8551811803
 C        -0.8616432625        1.7855831707      -13.6092717314
 C        -1.8877961607        0.7232692948      -13.3046867436
 O        -2.8263111380        0.6167314613      -14.0021451067
 C        -1.8124038195       -0.2808271766      -12.1355109049
 C        -2.7452195398        0.4088159450      -10.8994838873
 O        -2.1605439585        1.2933846785      -10.3524194109
 C        -4.1788128101        0.0680253948      -10.5108963230
 C        -4.4276123719       -0.1860945489       -9.0302811030
 C        -4.4052371208       -1.7481891171       -8.7267632058
 O        -4.3968805710       -2.5417525315       -9.6382628970
 C        -4.5132400683       -2.2766024523       -7.2264015689
 C        -3.2071809824       -2.4238677859       -6.3914796367
 O        -3.1019295934       -2.3206447470       -5.2205372014
 C        -1.9781756901       -2.6824523025       -7.2532167175
 C        -0.6199233485       -2.5060264770       -6.5072060307
 C        -0.0546012052       -3.9303442970       -6.3617094218
 O        -0.7801575307       -4.9003016656       -6.1700376205
 C         1.4416118438       -4.1567248867       -6.3592433897
 C         1.8957000695       -3.6938538648       -4.9207611002
 O         1.0892220625       -3.7781167935       -4.0051255224
 C         3.3713769629       -3.2145299971       -4.5148502575
 C         3.3422430659       -1.9731484854       -3.5398889398
 C         2.7570301853       -0.6674729338       -4.0096711458
 O         2.0140866623       -0.6240876205       -4.9806932950
 C         2.7607813750        0.5015940405       -3.0509523756
 C         1.5055753519        0.4535528986       -2.0827595274
 O         1.6525654699        0.4666163850       -0.9084054319
 C         0.1057266516        0.3713652246       -2.7124633400
 C        -1.0767004756       -0.0513413636       -1.6485122886
 C        -1.3632729809       -1.5216918879       -1.8379455809
 O        -1.2405906960       -2.0327358946       -2.9313853306
 C        -1.7076661000       -2.4427557451       -0.6138747585
 C        -3.1353866874       -3.0737796274       -0.9220149357
 O        -3.3052218716       -3.6940481945       -1.9370197127
 C        -4.3590450581       -2.7656366557       -0.0217034305
 C        -5.0399505368       -4.0739024500        0.3988506079
 C        -4.0924445327       -5.0475805873        1.0908635533
 O        -2.9226975118       -4.7764149595        1.2683465404
 C        -4.6301838298       -6.3993647300        1.5444315876
 C        -4.1382823998       -7.4013523802        0.4279083832
 O        -4.9670147239       -7.9967295337       -0.2191795664
 C        -2.6921601707       -7.5564025949        0.3941965428
 C        -2.3648290471       -8.2837970528       -0.9592840285
 C        -2.1724107374       -7.2816504137       -2.1100177036
 O        -1.5476819393       -6.3130493608       -1.9289366216
 C        -2.6354501216       -7.6858505331       -3.5762446397
 C        -3.8499857725       -6.5434048987       -3.9251099258
 O        -3.5961507642       -5.5290304507       -4.5781548907
 C        -5.1842911224       -6.5647029422       -3.1520879616
 C        -6.0978699298       -5.3471189493       -3.3126827182
 C        -7.4042747680       -5.3950026101       -2.4825570729
 O        -7.5132806508       -6.2313855306       -1.5926547339
 C        -8.5292028062       -4.3232149892       -2.9353885583
 C        -7.9378742153       -2.8283606935       -2.8051163530
 O        -6.7996019598       -2.5692598190       -3.1562966751
 C        -8.7811222538       -1.6446623770       -2.3456792588
 C        -8.7241301307       -4.4278663150       -4.4673596990
 C        -9.8794329523       -4.4682908299       -2.1369562084
 C        -1.5034147298       -7.5427421881       -4.5786082326
 C        -3.1793914152       -9.1580923093       -3.6042863832
 C        -4.1378279673       -6.7991287393        2.9429857937
 C        -6.2038961762       -6.4799391246        1.5562686185
 C        -0.5699379046       -3.5696803959       -0.4496723181
 C        -1.7055439271       -1.6869501676        0.7503038132
 C         4.0606395897        0.4872558388       -2.1902172307
 C         2.7647896595        1.8680456257       -3.7835576879
 C         2.0282582338       -5.6134781109       -6.5350970727
 C         2.1660777125       -3.2760704902       -7.4664565514
 C        -5.5515113761       -1.4499636080       -6.5117407896
 C        -5.0504476405       -3.7233815201       -7.3178586374
 C        -2.3219536879       -1.7019525490      -12.4991282255
 C        -0.3251325402       -0.4024356521      -11.5588141573
 C         0.1555674206        3.6861611103      -18.4755346434
 C         0.1874386510        5.0571583139      -16.4171270045
 C        -7.4468778614        4.4377080600      -18.7729603477
 C        -7.1053820807        1.8677907534      -18.6308127941
 C        -9.5222893282        0.3620239266      -24.8908341122
 C        -7.5422329225       -1.1808119840      -24.5676350400
 C        -2.4284245054        2.2962487879      -26.8392280161
 C        -2.1715410063        1.5044110129      -24.3166668735
 H        -1.8382897718        4.6934590614      -25.6760354803
 H        -3.2266845032        5.4544465760      -24.7450238841
 H        -3.4019516900        4.9385157931      -26.4659745756
 H        -4.7314003090        1.4298171668      -27.6818457782
 H        -5.3792585413        2.7285721897      -26.6260917528
 H        -6.3857645277       -0.1597098530      -26.5417532148
 H        -7.2408442279        1.0569740775      -27.4823142740
 H       -10.0205560019        1.4152473146      -22.2281618829
 H        -8.9828391782        2.6173841603      -23.0976796562
 H        -8.9205121169        1.5406840627      -20.0710064044
 H        -9.7186083260        2.9069629972      -20.7156234381
 H        -4.3339221793        2.5971505284      -17.6942294791
 H        -4.7347356274        4.3170549064      -17.6261533992
 H        -2.6726141838        4.4836367142      -19.4037577061
 H        -2.3443918173        2.8656014882      -18.9709071476
 H        -2.2632937326        2.7520203953      -15.1287059104
 H        -1.0603633367        3.7099383264      -14.5332163142
 H        -0.6665778315        2.4172822747      -12.7527971273
 H         0.0929002503        1.3178186883      -13.9132550956
 H        -4.7468591901       -0.7382614215      -11.0537600730
 H        -4.6013857864        1.0218482966      -10.7861189273
 H        -5.3349139855        0.0937954302       -8.7570774288
 H        -3.6138732808        0.3036480514       -8.3268959664
 H        -1.9853633674       -2.1510839640       -8.2281077198
 H        -2.0964912736       -3.7444653994       -7.5534073938
 H        -0.6688887496       -2.1624649282       -5.4148818268
 H         0.1675346611       -1.9433093920       -7.0433509372
 H         3.7402356604       -2.9481809260       -5.4706251280
 H         3.9914387930       -3.9790154041       -4.0576389723
 H         4.3301147755       -1.7060159785       -3.0902433029
 H         2.6428550665       -2.2690864604       -2.7050915676
 H         0.0261748767       -0.6006895232       -3.3910242058
 H        -0.3053563677        1.2844260702       -3.2326264116
 H        -1.9927092505        0.4435033163       -1.9050015304
 H        -0.7986229053        0.1876380057       -0.6712968614
 H        -5.1815618757       -2.3482134811       -0.6361677058
 H        -4.1628286285       -2.1281734506        0.8358492281
 H        -5.4950862424       -4.5019432591       -0.4623544015
 H        -5.8395603283       -3.8223340629        1.1386616910
 H        -2.3244286671       -8.2402671858        1.1197499004
 H        -2.0310525555       -6.7160656243        0.5764376698
 H        -3.0844428752       -9.0625506832       -0.9174624699
 H        -1.4365482821       -8.8281984207       -0.8236752200
 H        -4.9250753466       -6.7177811182       -2.0023855996
 H        -5.7075418800       -7.4410261333       -3.4207909853
 H        -6.3554995442       -5.3741164646       -4.3953661659
 H        -5.5404077629       -4.4484283793       -3.1964535216
 H        -9.5920111729       -1.6055803176       -3.0882882959
 H        -8.2701282207       -0.6815525692       -2.2301815808
 H        -9.2131866878       -1.8620230126       -1.2911991072
 H        -7.9497220559       -3.9469581973       -5.0894174174
 H        -9.7581903303       -4.0005273729       -4.7473729966
 H        -8.9166641445       -5.3894868916       -4.7852962524
 H       -10.1951587668       -5.4929343421       -2.3283675552
 H       -10.7642561491       -3.9370268959       -2.5167606767
 H        -9.7285819526       -4.2788883023       -1.0869048850
 H        -1.7229470833       -7.2444739528       -5.5519446201
 H        -0.8883515250       -8.4062775912       -4.5917292660
 H        -0.8756204234       -6.7004635923       -4.2227295619
 H        -3.2419568658       -9.5345693283       -4.6020233057
 H        -4.1623896788       -9.3059714266       -3.1056637633
 H        -2.6243279135       -9.9531974730       -3.1132602407
 H        -4.3895025636       -7.8475602616        3.1221736293
 H        -4.7051202643       -6.2316450312        3.7415271433
 H        -3.0600031768       -6.6225041835        3.0763313851
 H        -6.5233159159       -5.5547924223        2.0231150135
 H        -6.6633513732       -7.2922521876        2.0911986002
 H        -6.5754558284       -6.3668327726        0.5348721072
 H        -0.1408748728       -3.5857811619        0.4909299921
 H         0.2217929019       -3.4946513094       -1.1828884955
 H        -1.1140081758       -4.5166457348       -0.4889483943
 H        -0.6512763750       -1.4184820044        0.9224180164
 H        -2.0012930076       -2.4677839503        1.4683834232
 H        -2.2646294971       -0.7578980774        0.7129864504
 H         4.9614572569        0.2732720917       -2.8408389224
 H         4.1031814629       -0.1809501068       -1.3766848314
 H         4.2716345016        1.5183926501       -1.8306953535
 H         2.3202726588        1.7954551931       -4.7554994126
 H         3.7743391542        2.1597283403       -3.9330758326
 H         2.1761399031        2.6357726829       -3.3083392138
 H         3.0250723811       -5.5713136560       -6.1048588591
 H         2.0820766494       -5.7684950839       -7.6300153319
 H         1.5537804198       -6.4516499358       -6.0351628772
 H         1.5121148501       -3.3732727772       -8.3456103996
 H         3.2482615688       -3.5410415839       -7.6592013741
 H         2.0330354248       -2.2800158109       -7.0917584228
 H        -5.3139321564       -0.3809996705       -6.4483128010
 H        -5.8415440525       -1.9402760056       -5.5857648743
 H        -6.5254315069       -1.4806488844       -6.9822173645
 H        -4.6117501091       -4.4158834642       -6.6188355542
 H        -4.8762493458       -4.2136021696       -8.2605456182
 H        -6.1132375006       -3.6974306347       -7.0816614517
 H        -2.5406539893       -2.3713087750      -11.6916389598
 H        -1.6850652728       -2.2391392196      -13.2129721849
 H        -3.2244896671       -1.4700350595      -13.1509107000
 H        -0.1638065536        0.5445495503      -11.1794319701
 H         0.3650985978       -0.5408117083      -12.3480832904
 H        -0.3128112593       -1.0423647473      -10.7004576090
 H         0.1780124952        4.6040117599      -19.0712500945
 H        -0.2922171017        2.9900864561      -19.2147862541
 H         1.2169012278        3.5009223251      -18.3379309712
 H        -0.2746125856        5.5027207667      -15.5626632984
 H         0.2994007041        5.8631684557      -17.1382099923
 H         1.2398801775        4.6833711469      -16.2842527796
 H        -8.5123831396        4.5555924233      -18.9972330402
 H        -6.9860513764        5.3450629874      -19.2144399303
 H        -7.3077638371        4.6286587864      -17.7358478476
 H        -8.0870854871        1.9822487981      -18.2465946004
 H        -6.4805583462        1.8507819219      -17.6989516184
 H        -6.9377979418        0.8761127932      -19.1433992433
 H        -9.9410594488        1.4081981423      -24.7288225791
 H       -10.1436219147       -0.4531938353      -24.5797437340
 H        -9.5485236444        0.1570429056      -26.0048678655
 H        -7.4369166795       -1.3291795829      -25.6377433988
 H        -8.2171121055       -1.8216737466      -24.0099034047
 H        -6.5655141569       -1.1798344000      -24.1874119393
 H        -1.3465515317        2.5181114935      -26.7660029150
 H        -2.9649971466        3.0974520635      -27.3255977501
 H        -2.5418860673        1.4054617486      -27.4190309907
 H        -2.8951050639        1.1570825385      -23.4901060353
 H        -1.5629058810        2.3465599528      -24.1378002481
 H        -1.4990769567        0.7181499972      -24.6441960296
 Na       -1.6618035448       -4.2796546237       -3.8183792427
 Na       -5.5069119495        2.2091434004      -22.7704199504
