232

 C        -3.1558431098        4.8034660530      -25.5325813154
 C        -3.6569960588        3.5055458342      -24.7909166738
 O        -4.3270029573        3.6291404017      -23.7503478316
 C        -3.1151220538        2.1642029052      -25.3032784887
 C        -4.3044477784        1.1537165357      -25.1090814595
 O        -4.3033736581        0.5137836857      -24.0855821126
 C        -5.3832009770        0.8384214918      -26.2238373660
 C        -6.7450471653        0.2209031836      -25.9369578081
 C        -7.3179337583        0.9598529482      -24.7401367791
 O        -7.1927643635        2.1581411257      -24.5783094326
 C        -8.3381093471        0.2085929514      -23.8698223943
 C        -8.2290670665        0.8769685445      -22.4460361467
 O        -7.3489802392        0.5883502669      -21.7030803581
 C        -9.2906263362        1.9247470964      -22.0669818687
 C        -9.1106168035        2.5650720818      -20.6704637917
 C        -7.5384606981        2.9466435276      -20.6231556655
 O        -6.9952318464        3.5008907370      -21.6019021364
 C        -6.8932078468        2.9391482659      -19.1787458243
 C        -5.3797952078        2.8012568174      -19.2165321068
 O        -4.8189773911        2.2293499622      -20.1619005943
 C        -4.5570483264        3.6459151678      -18.3375945917
 C        -3.0655616110        3.0380612227      -18.1767883823
 C        -2.2365212711        3.9270490262      -17.2099593084
 O        -2.8294232489        4.6489934034      -16.3899775893
 C        -0.6366973030        3.9653857974      -17.1448847790
 C        -0.3966871483        2.7254031531      -16.0975147133
 O         0.2442907539        1.7869782964      -16.3595754923
 C        -1.2321664636        2.6832083184      -14.6366633366
 C        -0.6087088845        1.6370889099      -13.7944242358
 C        -1.7584175636        0.7701628090      -13.2192906385
 O        -2.9178319299        0.7796001259      -13.7296976569
 C        -1.6484601886       -0.0964472939      -11.9385082221
 C        -2.6246947455        0.5155067546      -10.8608980628
 O        -2.2184209024        1.1704289759       -9.9495922406
 C        -4.1240942147        0.1023455635      -10.7834648836
 C        -4.6519916525       -0.0752868978       -9.3515448700
 C        -4.3886190558       -1.5108083583       -8.6728483593
 O        -4.1933047978       -2.3918841128       -9.4784691705
 C        -4.4379859712       -1.7743672046       -7.1902948083
 C        -3.0214859221       -2.4765451431       -6.8407519752
 O        -2.8119669419       -3.0170680727       -5.7619375392
 C        -1.8268079081       -2.2057616831       -7.8514349107
 C        -0.4210555577       -2.0726582752       -7.1245182071
 C         0.2026322945       -3.4102058100       -6.7866107065
 O        -0.4875911477       -4.3303264211       -6.3919936951
 C         1.6852848305       -3.5641590505       -6.5629514079
 C         1.9688329637       -3.3542261768       -4.9247488666
 O         1.1290456694       -3.6405861773       -4.1037126785
 C         3.4035781009       -2.9784928201       -4.5785023709
 C         3.4692105701       -2.0422164884       -3.4326687022
 C         2.7563458503       -0.7214642382       -3.9575658916
 O         2.2240004986       -0.6094757355       -5.0351121171
 C         2.8105063666        0.5905594206       -2.9331099006
 C         1.4547325358        0.2879325475       -2.0998104588
 O         1.4821389109       -0.3779408504       -1.0392597310
 C         0.1787879016        0.4770849588       -2.7759722177
 C        -0.9466282986       -0.0124874927       -1.8748345399
 C        -1.0683489384       -1.5098631986       -1.9896078619
 O        -0.8316383507       -1.9649810489       -3.1205937984
 C        -1.6440523429       -2.4144845339       -0.8505702931
 C        -3.0451624381       -3.0506823803       -1.4065030131
 O        -3.1078907538       -3.6381534090       -2.4535265036
 C        -4.3129569707       -3.0345151261       -0.5329733163
 C        -4.7566234142       -4.5132727507       -0.3066590014
 C        -4.1478199896       -5.1181194153        1.0161325177
 O        -3.4726982008       -4.4379248014        1.7700027338
 C        -4.4000076278       -6.6360024171        1.2489028535
 C        -3.6868309169       -7.3903501951        0.0715434394
 O        -4.4034533190       -8.1358341942       -0.6881910461
 C        -2.1565070551       -7.2644670634        0.0057097180
 C        -1.5187454156       -7.9582984059       -1.3822000722
 C        -1.9465320001       -7.2295165998       -2.6695347767
 O        -1.2885931585       -6.2772977297       -2.8758931067
 C        -2.9975145983       -7.7606799306       -3.6695474828
 C        -4.0937782306       -6.5660334673       -3.9901234939
 O        -3.6730820083       -5.4667386767       -4.4230366308
 C        -5.6272142600       -6.8457956254       -4.0002191730
 C        -6.4396297855       -5.4811968774       -3.9080368633
 C        -7.4968226885       -5.5940553183       -2.7685329915
 O        -7.4148010739       -6.4186607626       -1.8995943763
 C        -8.7098453665       -4.5163126989       -2.7610820029
 C        -8.1713242672       -3.0703859101       -2.5231219651
 O        -7.0546178576       -2.9993784489       -2.0709221409
 C        -9.1239535515       -1.9003719159       -2.6400582901
 C        -9.5140959432       -4.5822090898       -4.0966988973
 C        -9.6524690641       -4.8091105297       -1.5856407236
 C        -2.2076157974       -8.0733078950       -5.0167875010
 C        -3.6125427607       -9.1687785448       -3.2950900398
 C        -3.7879217044       -7.1151141768        2.5702794531
 C        -5.9784781808       -6.9383355946        1.1930073102
 C        -0.5792262064       -3.5730113921       -0.4392924733
 C        -1.8434623829       -1.5035158764        0.4641985851
 C         4.0463599123        0.6165604211       -2.0133364533
 C         2.7615078023        1.8309038332       -3.7035230054
 C         2.3223180666       -5.0366201410       -6.7539307337
 C         2.5660825730       -2.5702047908       -7.3032845174
 C        -4.5169029003       -0.4820564326       -6.3640601190
 C        -5.5612521311       -2.7778814566       -6.7866616695
 C        -2.0420707598       -1.6370812427      -12.2864329010
 C        -0.1824115062       -0.0913084024      -11.4535921435
 C         0.1197101210        3.6252328953      -18.4409598745
 C        -0.2362882315        5.3229105207      -16.4583961101
 C        -7.2487328277        4.3517321590      -18.7381515917
 C        -7.4948338773        1.7283324847      -18.3588613777
 C        -9.7372369430        0.4138338220      -24.5527348081
 C        -8.2248055612       -1.3741414999      -23.7087534391
 C        -2.7462595168        2.3828621152      -26.7305911367
 C        -2.0752176540        1.6748365648      -24.2348652374
 H        -3.7920662539        4.8561595164      -26.4502265514
 H        -2.1098260196        4.5980080867      -25.6512401418
 H        -3.3877755126        5.5839775423      -24.8079802810
 H        -4.9055135951        0.0893775994      -26.8367325507
 H        -5.5682109807        1.6791049293      -26.9699004021
 H        -6.6206380691       -0.8500785022      -25.7804352969
 H        -7.3910949758        0.2396584210      -26.7756444509
 H       -10.2298375988        1.3149082367      -21.9927879152
 H        -9.4595961597        2.6799905629      -22.8282558911
 H        -9.4253142594        1.9065601070      -19.8704137141
 H        -9.7830040099        3.3749042021      -20.6261561558
 H        -5.0106183187        4.0007723853      -17.3892657258
 H        -4.4605017546        4.6426490746      -18.8930426431
 H        -2.5767483423        3.0086766171      -19.1131816688
 H        -3.3100653898        2.0255110394      -17.8400974055
 H        -2.2663814038        2.3890874084      -14.9055715858
 H        -1.4323460929        3.6233344151      -14.1313243762
 H        -0.0079724586        1.9526364379      -12.9247750124
 H        -0.0410301157        1.0024620828      -14.5184558690
 H        -4.4444445122       -0.7539030975      -11.3809558358
 H        -4.5193594799        0.9333134040      -11.2801897677
 H        -5.7451795468        0.1849384749       -9.3657690693
 H        -4.1595020465        0.6933053064       -8.7748789522
 H        -2.0645351730       -1.2782357038       -8.3639288242
 H        -1.7289255856       -2.9063752464       -8.6598223191
 H        -0.4824227170       -1.5984739492       -6.1062733046
 H         0.2529558173       -1.5316538318       -7.7452651776
 H         3.8402065334       -2.7072504461       -5.5079605064
 H         3.9814296493       -3.8084870867       -4.2399065464
 H         4.4806316263       -1.7725123820       -3.2110939942
 H         2.9781627685       -2.5606634658       -2.6380567055
 H         0.1054357199       -0.1575068147       -3.7249904006
 H        -0.0941069652        1.5631833216       -3.0151033505
 H        -1.8987277194        0.4122559795       -2.3222886437
 H        -0.7545408998        0.3996699360       -0.8878196917
 H        -5.1369948072       -2.5398317687       -0.9971556075
 H        -4.1948509061       -2.5932108978        0.4167523094
 H        -4.5408709972       -5.2650831154       -1.1551721652
 H        -5.8360630746       -4.6089378907       -0.2585360264
 H        -1.7224035639       -7.8571756299        0.8324374052
 H        -1.7763268819       -6.2352221661       -0.0696669646
 H        -1.8051452479       -9.0190727894       -1.3579936843
 H        -0.3991311398       -7.7342812392       -1.3605674166
 H        -5.9909063164       -7.5275415236       -3.1394953254
 H        -5.8991519481       -7.4224543776       -4.8167791001
 H        -6.8686146744       -5.1330000643       -4.8861215583
 H        -5.7645850336       -4.6849217894       -3.6548520164
 H        -9.4883650388       -1.8082104183       -3.6801318734
 H        -8.5093992351       -1.0269336195       -2.3893086565
 H        -9.9749365155       -2.0371891224       -1.9952299677
 H        -9.0982898093       -3.9361813877       -4.8217797607
 H       -10.4966997542       -4.1684830239       -3.8890870412
 H        -9.5691709431       -5.5780356702       -4.5588871377
 H       -10.0544603960       -5.7987654637       -1.7430376187
 H       -10.3211550246       -3.9931099322       -1.4610352785
 H        -9.0782540373       -4.9373719733       -0.6408568628
 H        -2.9695172967       -8.5067290867       -5.7826130424
 H        -1.3907322714       -8.8170622576       -4.9744700590
 H        -1.8099662553       -7.1217057519       -5.4206663266
 H        -3.8097988226       -9.8152693142       -4.1822033371
 H        -4.5455370423       -9.0881403524       -2.8728226675
 H        -2.9510828994       -9.6916805905       -2.5725984123
 H        -3.6613912796       -8.2247140541        2.6410794089
 H        -4.3105388386       -6.6723176966        3.3907261365
 H        -2.8066895568       -6.7433545955        2.6485417432
 H        -6.4446363208       -6.4694677925        2.0509850225
 H        -6.2706777973       -7.9939302631        1.2277226795
 H        -6.4544471480       -6.6284933351        0.2527508476
 H        -0.1879428288       -3.2137456850        0.5424977965
 H         0.2732012490       -3.5802582237       -1.1928484080
 H        -0.9240466929       -4.6128937386       -0.4372960493
 H        -0.8872659906       -1.2527768432        0.7744101154
 H        -2.3934204805       -2.1346056222        1.2056978947
 H        -2.4887456789       -0.6922549717        0.1840478227
 H         3.8381333832        1.2374369343       -1.1404096479
 H         4.8646083354        1.1839147445       -2.3877279617
 H         4.4186751934       -0.3531702119       -1.6706327778
 H         2.2022410653        1.8588895747       -4.6710947798
 H         3.7955275859        2.2126333382       -3.9385040249
 H         2.4784958480        2.7525449452       -3.1546736328
 H         3.3630160003       -4.9760012171       -6.6385910496
 H         2.2039973944       -5.5569062092       -7.7297027878
 H         1.8454280003       -5.7541336978       -6.0433819093
 H         2.3788739156       -2.4814272513       -8.3740527791
 H         3.6896176541       -2.6991936367       -7.3639788558
 H         2.3253888784       -1.5132529401       -6.8732393925
 H        -3.6546089242        0.0981809535       -6.4917387945
 H        -4.3288660938       -0.7564711259       -5.2778272976
 H        -5.3507152405        0.1261854082       -6.4308502827
 H        -5.4814810876       -2.9087175579       -5.7284071430
 H        -5.5396679688       -3.7591696068       -7.3623549127
 H        -6.5713317656       -2.3925033029       -6.9910632042
 H        -2.5205039778       -2.1621514612      -11.5321025890
 H        -1.0730624778       -2.1025363212      -12.6692749683
 H        -2.8232531615       -1.5567891631      -12.9728039366
 H        -0.0705901117        0.9516145929      -11.1451930956
 H         0.6121296412       -0.4128561939      -12.1387666352
 H        -0.0936707670       -0.8735949566      -10.6708338762
 H        -0.3226187434        4.2429025640      -19.2611767920
 H         0.1185001337        2.5906901354      -18.7415135029
 H         1.1134237766        3.8619424965      -18.3897767914
 H        -0.6842348276        5.4112764091      -15.4982831216
 H        -0.5131789820        6.1033518624      -17.1637865192
 H         0.8142978091        5.2949533844      -16.3022782564
 H        -8.3470760243        4.6951347124      -18.7090086416
 H        -6.7836435465        5.1739462320      -19.2542592476
 H        -6.8355751886        4.4511529359      -17.7121562600
 H        -8.5634714496        1.9106948908      -18.1143180915
 H        -6.8903117726        1.6264270315      -17.5138776891
 H        -7.2822778508        0.8413310105      -18.9980897177
 H        -9.8404400496        1.4506286806      -24.8534313939
 H       -10.5805245376        0.2043693126      -23.9108257719
 H        -9.7025754668       -0.1064788709      -25.4246011252
 H        -8.6924269587       -1.9167694311      -24.5149703052
 H        -8.8911182502       -1.6367940305      -22.8673063409
 H        -7.1818016944       -1.5340206656      -23.4359182098
 H        -1.9646311344        3.1780012560      -26.6734697109
 H        -3.5499168964        2.6739846243      -27.4450094073
 H        -2.2522177735        1.4771267425      -27.0038078207
 H        -2.5701602657        1.5760400646      -23.2787158203
 H        -1.3908211628        2.5365913097      -24.2151622899
 H        -1.6916856966        0.7761225567      -24.6233862694
 Na       -1.2798788728       -4.1533597923       -4.0852797261
 Na       -5.5354295008        2.0251369553      -22.5724639507
