232

 C        -3.4009940525        4.9441556278      -25.3867683665
 C        -3.7894395405        3.5423742138      -24.7487074172
 O        -4.3608394254        3.6047991323      -23.7258465105
 C        -3.1316653404        2.0952353029      -25.2635467693
 C        -4.3440175583        1.0417485077      -25.0524364884
 O        -4.5707873403        0.5950943019      -23.9315304041
 C        -5.1914156134        0.6497373183      -26.2676386774
 C        -6.5085147691        0.0086182105      -25.7399031504
 C        -7.3614338706        0.8532747138      -24.7545113970
 O        -7.1330939689        2.0398263185      -24.4755150966
 C        -8.4792120151        0.0778856113      -23.9025764269
 C        -8.4743549331        0.8986708232      -22.4533170460
 O        -7.4373579717        0.7447055044      -21.7707985761
 C        -9.5603642691        1.8292511138      -21.9315307189
 C        -9.1657822234        2.7186018777      -20.6777349395
 C        -7.6866840566        3.0712796013      -20.5655015044
 O        -7.0929767432        3.6017846660      -21.4432220889
 C        -6.9322743370        2.9928976334      -19.1046145686
 C        -5.3952418526        2.6954031870      -19.3785872017
 O        -4.9968241245        1.9297387531      -20.2048035964
 C        -4.4106662887        3.4731796722      -18.4653117410
 C        -3.0199609377        3.0624624189      -18.1476821009
 C        -2.3287580313        3.9986585762      -17.1162457798
 O        -2.9480136852        4.7832979127      -16.4265126033
 C        -0.7403770645        3.9457288977      -17.0547529457
 C        -0.4367737088        2.6225856196      -15.9821599796
 O         0.4139744689        1.8294311529      -16.3861591954
 C        -1.1715948436        2.6910672553      -14.6249897497
 C        -0.6494745806        1.7093132330      -13.5533852597
 C        -1.9693404276        0.7782466503      -13.1221286473
 O        -3.0033637673        0.8176915159      -13.6859125789
 C        -1.6359973627       -0.1757260404      -11.8623544586
 C        -2.6142276378        0.3284993916      -10.6602507747
 O        -2.0620275239        0.8640177201       -9.6846045011
 C        -4.0790347208        0.1485185508      -10.8438425600
 C        -4.7936697576       -0.0668429070       -9.4598347138
 C        -4.3971562949       -1.2936314823       -8.8048745107
 O        -3.9677496222       -2.2719416324       -9.4106470678
 C        -4.2744082297       -1.4972818205       -7.2132809580
 C        -2.8446144401       -2.1958742861       -6.8840512674
 O        -2.7958859389       -2.8626481736       -5.8807569838
 C        -1.7111408624       -1.9909929745       -7.7718128757
 C        -0.3451185518       -2.1547049653       -7.2023769648
 C         0.2256875682       -3.5255096212       -6.7213716095
 O        -0.4261560017       -4.5868625188       -6.6544919437
 C         1.7419965644       -3.5194251455       -6.5258489356
 C         1.9858544623       -3.3035494721       -4.9670038578
 O         1.1516271215       -3.6195127000       -4.1298126158
 C         3.4436289705       -3.1892703254       -4.2669795780
 C         3.6210280956       -1.9698329129       -3.3467984795
 C         2.9124142680       -0.6958950490       -3.9119954927
 O         2.3035191873       -0.6262283129       -4.9851773677
 C         2.8135748159        0.5392293542       -2.9016534102
 C         1.5131842335        0.1876225982       -2.1403317678
 O         1.5744692821       -0.5442574734       -1.2196422283
 C         0.1213944752        0.7144966593       -2.6310956225
 C        -1.1593145971        0.0804392599       -1.8750357289
 C        -1.1949858840       -1.4381437297       -2.0816432690
 O        -0.9573250159       -1.9503687329       -3.1611121613
 C        -1.6266744001       -2.3071709020       -0.8392808629
 C        -2.9295118437       -3.0137683263       -1.3766543111
 O        -2.8687516491       -3.6143353035       -2.4592423991
 C        -4.2255414685       -3.1044939500       -0.6129310386
 C        -4.7793708309       -4.5163751559       -0.3775008235
 C        -4.1899155291       -5.1384948988        0.9347268826
 O        -3.4473098403       -4.4816925673        1.6400520365
 C        -4.3274502348       -6.7534664810        1.2132904727
 C        -3.5824230304       -7.3325040425       -0.0585512591
 O        -4.2319316328       -7.8555836795       -0.8954964683
 C        -2.0370183891       -7.1092871608       -0.2768464740
 C        -1.5735063254       -7.8726433424       -1.5019766939
 C        -1.9930714318       -7.2760677230       -2.8277305683
 O        -1.2648511648       -6.2825743320       -3.1309694512
 C        -3.0196230716       -7.8197640655       -3.8078479011
 C        -4.0032003532       -6.5458675818       -3.9652622898
 O        -3.6025464354       -5.4967409398       -4.3372824448
 C        -5.4954617185       -6.8769953414       -3.9183959360
 C        -6.4920428272       -5.6816861737       -4.0964571427
 C        -7.4606280660       -5.5634985271       -2.8156043081
 O        -7.2360667322       -6.2819540893       -1.8727526239
 C        -8.7321276724       -4.6036186245       -2.7412673477
 C        -8.2149259680       -3.1365171656       -2.3887088352
 O        -7.1544525766       -2.9668074180       -1.8200475034
 C        -9.1283866162       -1.9929180169       -2.7851799992
 C        -9.5907193442       -4.6325506794       -4.0387983738
 C        -9.6059656389       -5.1375430170       -1.5635361392
 C        -2.3464480584       -7.9828215660       -5.2029695523
 C        -3.6381597973       -9.2026606175       -3.4254474603
 C        -3.7340489850       -6.9762071143        2.6048200766
 C        -5.8082782259       -7.1705269547        1.0976461372
 C        -0.6383278952       -3.5407312659       -0.7028162186
 C        -1.8995022924       -1.5825419049        0.4979078926
 C         3.9476163902        0.5526776179       -1.8362947783
 C         2.5822951930        1.8466136862       -3.6852765778
 C         2.3086728244       -4.8792354983       -6.9497674916
 C         2.3968148097       -2.4853200212       -7.3629684737
 C        -4.3189968885       -0.1656106115       -6.3645010182
 C        -5.3471942906       -2.5325507521       -6.7642658186
 C        -1.9462264923       -1.6036860123      -12.3602157725
 C        -0.1659658899       -0.0792337493      -11.3113393468
 C        -0.1022643106        3.6258630577      -18.4110279979
 C        -0.1482727348        5.2278942999      -16.3890239406
 C        -7.4082135724        4.3233120600      -18.2713701210
 C        -7.4963133228        1.8539360848      -18.2002133738
 C        -9.8808768693        0.4171133426      -24.5104159305
 C        -8.1645851525       -1.4369733371      -23.5748542436
 C        -2.7193949470        2.0076548551      -26.7387502967
 C        -1.8032616546        1.8553456835      -24.4896161667
 H        -4.0488158842        5.0537780065      -26.1938111554
 H        -2.3342575250        4.8308313344      -25.5317218676
 H        -3.6553325398        5.5927371317      -24.5646966392
 H        -4.5827831815       -0.0032204353      -26.9648860230
 H        -5.5143676595        1.4928397682      -26.8780375746
 H        -6.2708719546       -0.8896209794      -25.1659119829
 H        -7.1602550496       -0.4582728444      -26.5175598544
 H       -10.5290534557        1.3798169344      -21.8496220255
 H        -9.6025029275        2.4930394711      -22.8797228306
 H        -9.6454831728        2.4006087246      -19.7596592148
 H        -9.6052914568        3.7537227319      -20.9225588408
 H        -4.8954801129        3.6577525397      -17.5082033381
 H        -4.3854949936        4.4918287937      -18.8533688048
 H        -2.4042285977        3.0369798604      -19.1136715650
 H        -3.1315810332        2.0404521824      -17.7511494592
 H        -2.2388812089        2.5691950292      -14.8630443844
 H        -1.0665773472        3.7568876768      -14.4000543152
 H        -0.1768276584        2.1450071565      -12.6819346455
 H         0.0429265569        1.0399689716      -14.0692763006
 H        -4.2515460984       -0.7132977927      -11.4906449083
 H        -4.5715344731        1.0003500465      -11.4263568517
 H        -5.8004928064       -0.1591728016       -9.7827200404
 H        -4.8247388845        0.9145611150       -8.8199412423
 H        -1.7577138665       -1.0273306249       -8.3171008214
 H        -1.8686809062       -2.7654095449       -8.5750660011
 H        -0.0855726328       -1.3979942037       -6.4458982352
 H         0.3169370126       -1.9821498103       -8.1210888027
 H         4.2244099702       -3.1251561885       -5.0456978089
 H         3.6612996766       -4.2083032424       -3.8199135757
 H         4.6978000297       -1.7251113719       -3.1789260548
 H         3.0901264988       -2.0517434435       -2.3633086347
 H        -0.0618714213        0.5042986462       -3.6940042715
 H         0.0542801893        1.7744198630       -2.4995884394
 H        -2.0433024210        0.5497240568       -2.2172868092
 H        -1.0823109386        0.3527575879       -0.8198852854
 H        -5.0558584001       -2.5924474944       -1.1429993388
 H        -4.1633475334       -2.5711522377        0.3722506344
 H        -4.6180473269       -5.1308406470       -1.1884865951
 H        -5.8831362154       -4.5264222627       -0.2392544815
 H        -1.5227393545       -7.6520825616        0.4937204566
 H        -1.6450768169       -6.0954016307       -0.3593256434
 H        -2.0665609821       -8.8511350003       -1.5089429030
 H        -0.5368149829       -7.9352227386       -1.4623322815
 H        -5.7062738943       -7.4371215988       -3.0587639850
 H        -5.7883678500       -7.6510389817       -4.7297715352
 H        -7.0067716712       -5.6481032032       -5.0222206151
 H        -5.7952873613       -4.8133366943       -4.1239796216
 H        -9.0873766118       -1.7964299382       -3.8823593374
 H        -8.7272175425       -1.0772369188       -2.3080959477
 H       -10.1947360538       -2.3242624555       -2.4886383490
 H        -9.0454869459       -4.5680773832       -5.0236210159
 H       -10.3641945245       -3.8268186449       -3.9505253384
 H       -10.0967663273       -5.5624842453       -4.0384174871
 H        -9.8270793636       -6.1542280674       -1.7304633901
 H       -10.4066237792       -4.4309641757       -1.4285147972
 H        -9.0226368289       -5.1611417253       -0.7130586254
 H        -2.9422090778       -8.4560655465       -5.8971791963
 H        -1.4743794686       -8.6333121810       -5.0812295250
 H        -1.9389464060       -7.0229017909       -5.5409963221
 H        -4.4996086369       -9.3533920702       -4.0630209991
 H        -3.9812125461       -9.2411643947       -2.3371517131
 H        -2.9740904677      -10.0308542073       -3.6025042778
 H        -3.8998222641       -7.9770721512        2.8936195707
 H        -4.1833576705       -6.3903208018        3.4100871054
 H        -2.6511892247       -6.7819216584        2.5982029637
 H        -6.4340253851       -6.8159870891        1.9158805222
 H        -5.8983780773       -8.2472059214        1.0675908698
 H        -6.2425152986       -6.8836198414        0.1448089085
 H        -1.1580777802       -4.4161205747       -0.3344913510
 H         0.2044015735       -3.3621400783       -0.0318781208
 H        -0.3082788546       -3.6719293646       -1.7733391213
 H        -0.9654168998       -1.0286999667        0.6601829186
 H        -2.0359462986       -2.2171047513        1.3149612857
 H        -2.7207890803       -0.9826565933        0.2267442087
 H         4.3499498277        1.5721187700       -1.6553760109
 H         4.8142335109       -0.0149892432       -2.2093079351
 H         3.6844354026        0.1025589321       -0.8849703001
 H         2.2679466606        1.6430945157       -4.6691140184
 H         3.4027889445        2.4658018410       -3.8530253055
 H         1.9266038626        2.5197913276       -3.2308115866
 H         3.4599614424       -4.9828342343       -6.9088327461
 H         2.1020304605       -5.0598036129       -7.9956643743
 H         1.8952805722       -5.7188258733       -6.4146133547
 H         2.2527310876       -2.5105581762       -8.5136386656
 H         3.4720053397       -2.5741756095       -7.2364555427
 H         2.0935464054       -1.5233690589       -7.0359538879
 H        -3.5251107608        0.5814267795       -6.5923949098
 H        -4.2687067927       -0.2657039859       -5.3322880551
 H        -5.2795786389        0.3633324035       -6.5847688123
 H        -4.8628976360       -3.1596572241       -5.9771048680
 H        -5.7006699932       -3.0726849538       -7.5878023315
 H        -6.2278884424       -2.1382112128       -6.2536151673
 H        -2.8178410581       -1.9734621401      -11.7604053672
 H        -1.1518224566       -2.1976488402      -12.0733114833
 H        -2.3804920278       -1.6711542743      -13.3901825958
 H         0.1616872035        0.9382380482      -11.1862827804
 H         0.5122389260       -0.6243467200      -11.9725510640
 H        -0.1060719971       -0.7141565878      -10.4367428383
 H        -0.2240283381        4.3634089649      -19.1829654067
 H        -0.3723315948        2.6009601234      -18.7681539040
 H         1.0305448045        3.5607739285      -18.2212438880
 H        -0.1912302111        5.1812672644      -15.2726841889
 H        -0.6506115365        6.0971207168      -16.8135679764
 H         0.9497040480        5.2294682541      -16.6746334684
 H        -8.4509735686        4.4627477854      -18.2474633160
 H        -7.1301509741        5.3042307514      -18.7356618379
 H        -6.9579354378        4.3672793612      -17.2845807272
 H        -8.0415169676        2.3337994548      -17.4237480413
 H        -6.5334760969        1.3640914417      -17.8422910626
 H        -7.9986512435        1.0569806418      -18.7213548086
 H       -10.0717624220        1.4940594450      -24.6761110396
 H       -10.5928078387        0.1639761268      -23.7500697060
 H       -10.0340680853       -0.1904611861      -25.4682878586
 H        -8.1650683202       -1.9377393422      -24.5812520842
 H        -8.9932296713       -1.9401684107      -23.0879711482
 H        -7.2161759074       -1.4206841021      -23.0518809101
 H        -1.9822115386        2.7826671825      -26.9435487543
 H        -3.6285229726        2.1305316035      -27.3021282566
 H        -2.2393790445        1.0234677520      -26.9828036090
 H        -1.8755054912        2.1682126287      -23.4236314636
 H        -1.1143135896        2.4481123068      -25.0182701471
 H        -1.6379948150        0.7717195118      -24.6540689757
 Na       -1.4911433541       -4.1678346465       -4.3406735761
 Na       -5.5415940313        2.0218788075      -22.4384814709
