232

 C        -3.4548819057        4.7017199156      -25.6662959983
 C        -3.8597783092        3.4968785315      -24.7889459071
 O        -4.3432479420        3.6594719234      -23.7143998980
 C        -3.3342132876        2.0596236110      -25.2807198415
 C        -4.3134926437        1.0217488960      -24.9443641600
 O        -4.3666630465        0.5942852915      -23.7992772828
 C        -5.1992965770        0.3813879256      -25.9711008159
 C        -6.4418609612       -0.2255113959      -25.3155157044
 C        -7.3176938035        0.7184232817      -24.4494024414
 O        -7.1040399005        1.9314704271      -24.4523701255
 C        -8.5474624251        0.1226211991      -23.6212314255
 C        -8.5420192222        0.9786514541      -22.3765838193
 O        -7.6747862626        0.6803670886      -21.5265258954
 C        -9.4999739678        2.0507659182      -22.0697388346
 C        -9.2801976319        2.5473557872      -20.6231727373
 C        -7.8135300203        3.0748917991      -20.4217622145
 O        -7.3124396512        3.5667035129      -21.3539947867
 C        -7.0207652526        2.9632185219      -19.0529498470
 C        -5.4628029802        2.7038728643      -19.1078834542
 O        -4.8895315432        2.1105275621      -19.9994024954
 C        -4.6657444107        3.4819380777      -18.0638919021
 C        -3.1031757264        3.1654410446      -18.2618978751
 C        -2.3432032826        4.0043628645      -17.2285498193
 O        -2.9520856238        4.8088282615      -16.5769251718
 C        -0.8265094376        3.7732005281      -17.0171480516
 C        -0.5829999673        2.7167053778      -15.9092852820
 O         0.3245454077        1.8777415479      -16.0557851211
 C        -1.4496946936        2.6871581304      -14.6261152389
 C        -0.7571009029        1.7411505558      -13.6043238699
 C        -1.8986185665        0.8027218241      -12.9254158472
 O        -3.0061438820        0.9390486634      -13.3942464328
 C        -1.5981765618       -0.1169833046      -11.7527173019
 C        -2.5675809547        0.1571748222      -10.5538530707
 O        -2.0883963965        0.2193444110       -9.4156519205
 C        -4.0544408962        0.2983294157      -10.8434213051
 C        -4.7610604587       -0.0084145233       -9.5914774309
 C        -4.2592943698       -1.2202029826       -8.9182069202
 O        -3.9998561227       -2.1421720869       -9.7040322483
 C        -4.0704524636       -1.2946469125       -7.3571232283
 C        -2.7209352401       -1.9894577728       -6.7546195802
 O        -2.8138897716       -2.4080859619       -5.6263703734
 C        -1.5358299084       -2.1165863813       -7.7332971314
 C        -0.1214695636       -1.9221917554       -7.0502809091
 C         0.4135647326       -3.3753882739       -6.8942212357
 O        -0.3621657293       -4.2710689062       -6.9395538968
 C         2.0110493453       -3.6194936844       -6.5607231346
 C         1.9905449372       -3.4801407652       -5.0037954674
 O         0.9144929112       -3.5690053579       -4.3441931410
 C         3.3830920204       -3.2098378728       -4.3320838862
 C         3.2853075902       -2.0604095504       -3.2717829060
 C         2.8598617787       -0.7128485923       -3.7608798400
 O         2.4481495855       -0.6269633693       -4.8838192957
 C         2.7438848975        0.4644699436       -2.7359184479
 C         1.3969321623        0.1042668612       -2.0505024105
 O         1.3569721838       -0.8388261591       -1.3061896747
 C         0.0582016060        0.7819699483       -2.4400828746
 C        -1.1891534593        0.1052306187       -1.8069156909
 C        -1.2907077963       -1.3350339892       -2.1615505042
 O        -1.1439193034       -1.6264143617       -3.3235641867
 C        -1.7001154468       -2.3933397888       -1.0453584892
 C        -2.9591643330       -3.1387697168       -1.4833615354
 O        -2.8806700425       -3.8972378132       -2.4660678099
 C        -4.2242055059       -2.9992037075       -0.6267462477
 C        -4.9183702730       -4.3127386715       -0.2250752469
 C        -4.0291175170       -5.0113878781        0.8318042850
 O        -3.3484922912       -4.3525878281        1.5844887757
 C        -4.1443604205       -6.5773676636        1.0131578966
 C        -3.5753652206       -7.2178627798       -0.3183004274
 O        -4.2630615151       -7.6110139519       -1.1770325895
 C        -2.0050514996       -7.3571363557       -0.5996471066
 C        -1.6894477254       -8.1405749979       -1.8420248706
 C        -1.8294344981       -7.2315628722       -3.0612436473
 O        -1.1282905175       -6.2040933932       -3.2735482023
 C        -2.9088339613       -7.6625135032       -4.2030631355
 C        -4.0697453243       -6.6205791592       -4.1737917402
 O        -3.7753251790       -5.5053186138       -4.5591209197
 C        -5.4924523741       -7.0068632859       -3.8238958041
 C        -6.5271190032       -5.9146391267       -4.0087121482
 C        -7.3359450781       -5.6599985182       -2.6770289908
 O        -6.9840958045       -6.0711834171       -1.5997007784
 C        -8.6645014986       -4.8058710088       -2.7091191174
 C        -8.2659148910       -3.3673176473       -2.3242747789
 O        -7.3234909373       -3.1466150636       -1.5777720788
 C        -9.1248694694       -2.2484028431       -2.9873846971
 C        -9.2261281015       -4.9604011992       -4.1004747249
 C        -9.7136392172       -5.1924996498       -1.5917352256
 C        -2.2006385659       -7.4760283251       -5.5641295237
 C        -3.3890557761       -9.1243649041       -4.0210895037
 C        -3.3085673286       -7.0644974987        2.2539822834
 C        -5.5803995356       -6.9363489500        1.1930580509
 C        -0.5078800405       -3.3341596974       -1.0297871258
 C        -1.8748787296       -1.6999653471        0.3261275675
 C         3.9124649640        0.6022348375       -1.7236312177
 C         2.5869276540        1.6961716102       -3.6881895473
 C         2.3372891311       -5.0525188439       -6.7962001242
 C         2.9922268616       -2.7534641669       -7.3869629573
 C        -3.9998660831        0.0985525454       -6.6719920169
 C        -5.4799671371       -1.8322862948       -6.7944910753
 C        -1.9198496316       -1.6075878381      -12.1609234984
 C        -0.1467820362       -0.1661735055      -11.2852036294
 C         0.0283285031        3.3563611096      -18.2922205651
 C        -0.3467656592        5.1043545343      -16.4241461511
 C        -7.5040035520        4.2353789467      -18.2845967133
 C        -7.5012402287        1.6866400566      -18.3052614954
 C        -9.7042990641        0.4050876548      -24.5970325909
 C        -8.4820474256       -1.4297059185      -23.1692427844
 C        -2.9061208934        2.2379932318      -26.7795385523
 C        -2.0328765689        1.7308751106      -24.4911704578
 H        -3.9295967404        4.4531380997      -26.5992892698
 H        -2.3706917115        4.6158239060      -25.5271764200
 H        -3.8701061685        5.5592284402      -25.1333647161
 H        -4.7832171222       -0.4469323693      -26.6327645266
 H        -5.5556733385        1.0549755708      -26.6889625850
 H        -6.0857392539       -1.0311709696      -24.7187943155
 H        -7.0914334797       -0.7660066032      -25.9898557681
 H       -10.5287735562        1.6801309159      -22.3451870732
 H        -9.3390679524        2.8037855760      -22.8090654802
 H        -9.3537078725        1.6430278354      -20.0552395645
 H       -10.0179783100        3.2377655720      -20.3190218444
 H        -4.9866117617        3.2412176267      -16.9656347427
 H        -4.8427064822        4.5836449427      -18.2083376025
 H        -2.9140920922        3.4594855446      -19.2968434070
 H        -2.8269504468        2.1117164359      -18.2612489008
 H        -2.4483704914        2.4189900327      -14.8997028885
 H        -1.4332746667        3.7708943924      -14.2239336686
 H        -0.2354915351        2.4190678572      -12.8722171860
 H        -0.0100177726        1.0598604308      -13.9799253517
 H        -4.2760505343       -0.4883610159      -11.4979249821
 H        -4.3847537572        1.1924510512      -11.3695317587
 H        -5.8787029743       -0.0905218471       -9.8603391426
 H        -4.7438117315        0.9823753453       -8.9280356432
 H        -1.6118674977       -1.4498594894       -8.5746004182
 H        -1.6965764755       -3.0926765043       -8.1362375045
 H        -0.2436119831       -1.4869740714       -6.0516225746
 H         0.5955267402       -1.2429801507       -7.5716519081
 H         4.1402137141       -2.9418145083       -5.0290317884
 H         3.6608007619       -4.1101443140       -3.8719821211
 H         4.2167119694       -1.9536810031       -2.7524385803
 H         2.5201098627       -2.2284806188       -2.4879180147
 H        -0.0787734805        0.8533659309       -3.5852543154
 H         0.0994112833        1.9457392692       -2.2204312045
 H        -2.1561657136        0.5550013807       -2.0141559663
 H        -1.1364262588        0.2760341143       -0.7088912748
 H        -4.9385311097       -2.4426506698       -1.1525121770
 H        -4.0543161934       -2.4655543396        0.2931652074
 H        -5.1009677143       -5.0061346213       -1.0774922937
 H        -5.8615656408       -4.1207812602        0.2830904246
 H        -1.5296877795       -7.9649507305        0.2294145634
 H        -1.6183409702       -6.3230664022       -0.5739761526
 H        -2.1716829822       -9.1629557432       -1.9273034212
 H        -0.5880524690       -8.2922229196       -1.8631000336
 H        -5.5680655131       -7.2818772401       -2.7844695879
 H        -5.9105446647       -7.9646017900       -4.3627348859
 H        -7.1511263753       -5.9240752901       -4.8952298078
 H        -5.9174368878       -4.9907024711       -4.0640802289
 H        -8.7095404612       -1.9405446372       -3.9182476396
 H        -9.0240931305       -1.3547120744       -2.4196353750
 H       -10.1423343635       -2.6656511920       -3.0930279656
 H        -8.6388022129       -4.2755101008       -4.7001694109
 H       -10.2275934913       -4.6629648508       -4.1111899112
 H        -9.1384588574       -5.9643047030       -4.5231608695
 H        -9.8915094298       -6.2992462714       -1.7076061342
 H       -10.6525534638       -4.5913686237       -1.7998952063
 H        -9.3072809988       -5.0059792426       -0.6028003432
 H        -2.9851341921       -7.5475355018       -6.3266909225
 H        -1.5121694933       -8.3644345273       -5.6691783660
 H        -1.5504795113       -6.5750956156       -5.6611566750
 H        -3.5986612583       -9.5523085006       -4.9796193602
 H        -4.2439423200       -9.1638813643       -3.2538912520
 H        -2.6518997751       -9.7796147488       -3.6393024441
 H        -3.3687471893       -8.1086536557        2.3418482565
 H        -3.7578262975       -6.7852905819        3.1969359650
 H        -2.2684089404       -6.6454024973        2.2309472623
 H        -6.0881285634       -6.2285377697        1.8701833233
 H        -5.7341506500       -7.9601298141        1.5586785407
 H        -6.1158401417       -6.7953326934        0.2616965175
 H         0.1422510987       -3.1014654629       -1.8963350061
 H        -0.9183319053       -4.3228791574       -1.2185008992
 H         0.1746301350       -3.2189092750       -0.1746008110
 H        -0.8796092761       -1.2960338633        0.6952859888
 H        -2.0796196237       -2.5665057232        0.8919439051
 H        -2.6909182784       -0.9714165342        0.3144695259
 H         4.5510532865        1.4022537889       -1.9825053273
 H         4.4435145549       -0.3918999569       -1.6368761143
 H         3.5661077242        0.8871889502       -0.7502288392
 H         1.5587512304        1.6998926552       -4.1553347158
 H         3.0721033347        1.7043481553       -4.6756619239
 H         2.6866473140        2.7113789075       -3.1924491104
 H         3.1271564248       -5.5081208114       -6.1642322905
 H         2.6488323063       -5.1730195182       -7.8124090674
 H         1.5170005359       -5.6992768424       -6.6493791987
 H         2.7189602342       -2.6954644743       -8.4904899905
 H         3.9398614988       -3.2501603827       -7.1546822154
 H         3.0614071031       -1.6708911244       -7.2308375844
 H        -3.2148180814        0.7801151005       -7.0193934801
 H        -3.8754233488       -0.0579692811       -5.6756083425
 H        -4.9442002149        0.6913669444       -6.7131432828
 H        -5.7002629646       -1.4007067482       -5.7902446914
 H        -5.7099294855       -2.8784970628       -6.8535347911
 H        -6.2349753641       -1.3448307693       -7.4107684959
 H        -2.3140894133       -2.2774334830      -11.3467914607
 H        -1.0357627802       -2.0476800392      -12.4443165053
 H        -2.5892775389       -1.5095830607      -13.0415887495
 H         0.1233185293        0.6258470019      -10.4908219234
 H         0.5892179190       -0.1494261520      -12.1237610479
 H        -0.0652713655       -1.0975495129      -10.7148418511
 H        -0.0801780970        4.0037864914      -19.0941046318
 H        -0.2874585148        2.3819008081      -18.5726245623
 H         1.1290634759        3.3902812876      -18.0411653519
 H        -1.1582568041        5.3750999233      -15.7543363522
 H        -0.2550181523        5.8944869428      -17.1232479728
 H         0.5564312808        4.9160175801      -15.8939432354
 H        -8.5724083963        4.2216119556      -18.4141074502
 H        -7.2040787625        5.2590434239      -18.7423014683
 H        -7.4024729787        4.2113804652      -17.1674520854
 H        -8.5711564037        1.7496600139      -18.4835154849
 H        -7.2959444294        1.6766665630      -17.2207077038
 H        -7.0832595631        0.8885424866      -18.8361785079
 H        -9.7960861344        1.4324243732      -24.6008034076
 H       -10.6508167160        0.0148909556      -24.2512453972
 H        -9.5017159430       -0.0112276780      -25.5859133593
 H        -8.8411617346       -2.0503480289      -23.9857203559
 H        -9.1773757723       -1.3646628149      -22.3496084352
 H        -7.5004165376       -1.7684770799      -22.7683632852
 H        -2.0679053371        2.8601276617      -26.9368577539
 H        -3.8402087289        2.5335718561      -27.2528819710
 H        -2.6823083108        1.2690410558      -27.2789666533
 H        -2.4691258004        1.4087042520      -23.5728473092
 H        -1.5374063881        2.6846168015      -24.4328402033
 H        -1.4409830064        0.9460972044      -24.9742070875
 Na       -1.4989940022       -4.1137959072       -4.3822692931
 Na       -5.6526889405        2.1002453682      -22.1739367784
