232

 C        -3.5921806213        4.8169614638      -25.5464441353
 C        -3.9185826986        3.4401937044      -24.8032136561
 O        -4.4427476325        3.6281672859      -23.7035085657
 C        -3.3201025693        1.9757281481      -25.2108171798
 C        -4.3293375272        0.8885286170      -24.7709009887
 O        -4.4626688239        0.6830576019      -23.5652764853
 C        -5.2131856368        0.2165913604      -25.8033856408
 C        -6.5443534761       -0.4328187654      -25.2050859793
 C        -7.3163523093        0.6038351205      -24.4353971229
 O        -6.8862110704        1.7006874455      -24.2585282017
 C        -8.6152360962        0.1390170982      -23.5221890833
 C        -8.5397816472        0.8487316002      -22.1948754601
 O        -7.6965541301        0.7452371986      -21.3365350940
 C        -9.4352046889        2.1064860331      -22.0773111555
 C        -9.3287292015        2.6925674066      -20.6404670801
 C        -7.8319478591        2.9599873746      -20.3061703291
 O        -7.1975243771        3.4993198016      -21.2627409146
 C        -7.1665180139        2.8315633691      -18.9352867493
 C        -5.5782989264        2.8059855988      -19.1195521711
 O        -5.1408881781        2.4309422962      -20.2070805956
 C        -4.7191575099        3.2208103968      -17.9434549340
 C        -3.2272044502        3.2327804034      -18.2128781088
 C        -2.3547003200        4.0201982872      -17.1234321025
 O        -2.9731548720        4.8438152259      -16.4671483020
 C        -0.8142531419        3.8320877659      -16.9088253851
 C        -0.5714934871        2.6765824622      -15.8495829375
 O         0.2530994482        1.8175401670      -15.9994596501
 C        -1.4854042015        2.7566483592      -14.5157598764
 C        -0.9098402603        1.7870049857      -13.5136952979
 C        -1.9050599656        0.8383561929      -12.9337776508
 O        -3.1085981822        0.8665951546      -13.2844522603
 C        -1.5528474035       -0.1453972202      -11.7457839280
 C        -2.5072019998        0.2306597164      -10.6334543732
 O        -2.0742782564        0.4289442852       -9.5259717967
 C        -4.0446889480        0.3480812414      -10.8854958436
 C        -4.8703534813        0.0260042764       -9.5656888705
 C        -4.2188901196       -1.1497356096       -8.7833922556
 O        -3.9653240048       -2.1740981423       -9.3901553334
 C        -3.9823885816       -0.9780775527       -7.2550473673
 C        -2.7525891881       -1.8395422466       -6.8048831392
 O        -2.8663926519       -2.3470486868       -5.7098044010
 C        -1.5119713094       -2.0772535356       -7.7309296860
 C        -0.2546808748       -2.1360488381       -6.9087061827
 C         0.3606335788       -3.5239606517       -6.8228960496
 O        -0.3486853304       -4.5304610934       -6.9487428677
 C         1.9105986418       -3.6581686144       -6.5194824684
 C         2.0542312251       -3.4434885295       -4.9835962194
 O         1.0804748357       -3.5341710359       -4.3300841456
 C         3.3374834214       -3.2146278284       -4.2117619249
 C         3.0384944933       -2.1793300078       -3.1210700253
 C         2.7706165125       -0.8354053167       -3.7693428730
 O         2.5889544772       -0.8338959632       -4.9725799986
 C         2.5755034384        0.4028379637       -2.8086430014
 C         1.2327573743        0.0796594643       -2.1118924132
 O         1.2486491154       -0.7337468277       -1.1755011970
 C        -0.0303838811        0.7928160263       -2.5331178099
 C        -1.1896163085        0.1680665867       -1.7786790482
 C        -1.4244171329       -1.3175384771       -2.1640121991
 O        -1.4168355328       -1.5306893080       -3.3498924747
 C        -1.5965146736       -2.4387075546       -1.1025277485
 C        -2.9969491474       -3.1838650720       -1.5195950832
 O        -3.0002936160       -3.9990494047       -2.3733162831
 C        -4.2915403480       -2.9107901745       -0.8588516852
 C        -4.7348949842       -4.2504298256       -0.2323794750
 C        -3.7849805623       -4.9550326559        0.8171278724
 O        -3.0994284269       -4.3157170890        1.5764075402
 C        -3.8886383708       -6.4685242783        0.9251780879
 C        -3.5152974040       -7.1454637583       -0.4415206572
 O        -4.3267448615       -7.6960523379       -1.2293056117
 C        -2.0862109648       -7.4087524411       -0.6785769997
 C        -1.6974618625       -8.0656231795       -1.9927361859
 C        -1.8640569635       -7.1581819601       -3.2808546197
 O        -1.1739567990       -6.1988211135       -3.1892640504
 C        -2.7651847845       -7.5389237369       -4.5348427202
 C        -3.9804294536       -6.5066304095       -4.4062784387
 O        -3.7883689494       -5.3372942365       -4.7300833953
 C        -5.3875927502       -7.0700206214       -3.9422073081
 C        -6.3977223681       -5.8674952438       -3.9181019111
 C        -7.3247785460       -5.7790058840       -2.6062812295
 O        -6.9499707694       -6.0842196581       -1.4707382668
 C        -8.6426528885       -4.9168018191       -2.7496857135
 C        -8.3315207565       -3.4007071386       -2.4247170309
 O        -7.4646556982       -3.1925631180       -1.5842030129
 C        -9.1192741358       -2.2677941530       -3.0945571330
 C        -9.2941465125       -5.0171581445       -4.1781015274
 C        -9.6828781454       -5.4819166149       -1.7303714650
 C        -1.9755366728       -7.2407834323       -5.8993239559
 C        -3.1540974487       -9.0592805536       -4.4831320170
 C        -2.9209304995       -6.9689132236        2.0408276670
 C        -5.3750405864       -6.9053724305        1.2649153415
 C        -0.4752106259       -3.4105095453       -1.1748957370
 C        -1.5895289305       -1.8891118245        0.3716942014
 C         3.7215436502        0.4619008157       -1.7374674775
 C         2.6098485656        1.7573305625       -3.4479707733
 C         2.2626835711       -5.2088997511       -6.6915423339
 C         2.8649718239       -2.8415656281       -7.4067890226
 C        -3.6739362957        0.4254082392       -6.8575903116
 C        -5.2370554301       -1.7119795969       -6.6968619494
 C        -1.8865991951       -1.5756691330      -12.3388434142
 C        -0.0856525636       -0.0448285233      -11.3356589499
 C        -0.1107563477        3.3026599807      -18.2536139455
 C         0.0062973975        5.1654200890      -16.4465472259
 C        -7.7103976314        4.0633129096      -18.2744196748
 C        -7.5408954721        1.5850379701      -18.1723539546
 C        -9.8291161863        0.4681712813      -24.4449305773
 C        -8.6167302049       -1.4661011544      -23.2584245289
 C        -3.1249547013        1.9765601362      -26.7663648531
 C        -1.8849647499        1.8732850126      -24.5259916958
 H        -4.3733271545        4.8787943381      -26.3023060532
 H        -2.5627886086        4.7129794722      -25.7610963578
 H        -3.7138301948        5.5182028555      -24.7578660635
 H        -4.7247313548       -0.5600658121      -26.3291617076
 H        -5.5755272408        0.9132917572      -26.6390647331
 H        -6.2519457412       -1.3302995422      -24.5915651264
 H        -7.2370961054       -0.8538385079      -25.9486473329
 H       -10.4800935393        1.9260459525      -22.3863544758
 H        -9.2053905543        2.9583485503      -22.7778002022
 H        -9.9074292308        2.1223990715      -19.8557253876
 H        -9.7651580210        3.6955011543      -20.8437789208
 H        -4.8067350357        2.6468553880      -17.0765387603
 H        -5.1240496261        4.2251494640      -17.7744327225
 H        -3.0051621805        3.7143406150      -19.2011070595
 H        -2.8720854938        2.1825727596      -18.3995044747
 H        -2.4439151494        2.2413518913      -14.8444479980
 H        -1.5594265390        3.7585136128      -14.2788345877
 H        -0.4137006530        2.2070975296      -12.6708565438
 H        -0.1477326258        1.1695584851      -14.0639655420
 H        -4.5023616361       -0.1808806157      -11.7973786066
 H        -3.9460883646        1.4141129265      -11.1636190840
 H        -5.8657049643       -0.3242864437       -9.7147901575
 H        -4.9490307533        0.8458405760       -9.0835481212
 H        -1.3371020204       -1.3123479769       -8.5256376733
 H        -1.6774026619       -3.0722738914       -8.2582633570
 H        -0.4420658368       -1.8549687754       -5.8259042264
 H         0.4753395521       -1.3784806367       -7.2209931832
 H         4.1621282296       -2.9289136040       -4.9137890084
 H         3.6060106415       -4.0785106359       -3.5239792888
 H         3.8056366102       -2.1069381179       -2.3052359398
 H         2.1348355777       -2.6419418299       -2.6647145784
 H        -0.1055089895        0.8783623913       -3.5742956706
 H         0.0436829245        1.8053739672       -2.3000325569
 H        -2.1266536305        0.6325853348       -2.0977155422
 H        -1.1266831164        0.5016557292       -0.7816262885
 H        -5.0509042098       -2.6146205903       -1.6598411820
 H        -4.2782973327       -2.1751513779       -0.0418986337
 H        -4.8887687046       -5.0443951162       -0.9880051029
 H        -5.6421809052       -4.0154087532        0.2984209783
 H        -1.8757882624       -7.9937583808        0.1948867203
 H        -1.5485310577       -6.4806611128       -0.5396125803
 H        -2.1641195580       -9.0146636689       -2.1865572605
 H        -0.6514087447       -8.3559632353       -2.0186462650
 H        -5.4250218234       -7.4224365269       -2.8721600874
 H        -5.7765485052       -7.8280860993       -4.4806271985
 H        -7.0780177803       -5.8939644537       -4.7767973621
 H        -5.8749043855       -4.9143000000       -3.9305170926
 H        -8.7101013026       -2.1134784187       -4.1588631251
 H        -8.7985305113       -1.2933538947       -2.5959238688
 H       -10.1765128033       -2.5304191087       -3.0756990461
 H        -8.6730737424       -4.5869415847       -4.9627492418
 H       -10.2841485289       -4.5187788476       -4.1981540685
 H        -9.4860203533       -6.1167890287       -4.2888213701
 H       -10.1888379722       -6.3389896816       -2.1027542151
 H       -10.4459480217       -4.7703844902       -1.6589390187
 H        -9.1537501521       -5.5775854015       -0.7839291181
 H        -2.6278712688       -7.5785446631       -6.7378177738
 H        -0.9923488442       -7.6681879123       -5.9012444981
 H        -1.8347955591       -6.1766512242       -5.9437631110
 H        -3.9388398149       -9.2522948217       -5.2434452795
 H        -3.5209590661       -9.3589047436       -3.5549501173
 H        -2.3080491672       -9.7206902883       -4.8499685806
 H        -2.8071272439       -8.0538717968        2.0393212684
 H        -3.2902371605       -6.7648460877        3.0115027543
 H        -2.0264176913       -6.4594535141        1.9447295419
 H        -5.7919837299       -6.4149816102        2.1252395435
 H        -5.4056165228       -7.9751065910        1.4472362041
 H        -6.0753890757       -6.5980791290        0.4932952371
 H         0.4051285072       -3.0571162927       -0.6046994418
 H        -0.2960623435       -3.6979768110       -2.2469244611
 H        -0.7794963205       -4.2361666710       -0.5308897555
 H        -0.6143151249       -1.6042366042        0.5262839334
 H        -2.0081726332       -2.6536801211        1.0561924763
 H        -2.1588981126       -0.9792052428        0.3959454712
 H         4.6764176172        0.2835059508       -2.2419177894
 H         3.4971113239       -0.2466821703       -0.9786804568
 H         3.8733290047        1.4829963982       -1.3729065648
 H         2.1526909004        1.9184567570       -4.3806610008
 H         3.6383569475        1.9270035892       -3.7150289452
 H         2.2761509790        2.4952638491       -2.7845922545
 H         3.2434417958       -5.4142819057       -6.3078208997
 H         2.2482996899       -5.5299086875       -7.7608618136
 H         1.6549570770       -5.9461924132       -6.0850147772
 H         2.6048005122       -2.9961407653       -8.4219473725
 H         3.9222831862       -3.0227037197       -7.1392679738
 H         2.6766411365       -1.7229331905       -7.4237578851
 H        -2.8068479773        0.6929051937       -7.4164981815
 H        -3.5039750695        0.6048033752       -5.7379995363
 H        -4.4013533272        1.1164901508       -7.1524562175
 H        -5.5085829075       -1.3617755518       -5.7240142781
 H        -4.9511548112       -2.7931469316       -6.5844714628
 H        -6.1524905281       -1.6740470458       -7.3173535209
 H        -1.3131829041       -2.2845362973      -11.7824045069
 H        -1.6256510560       -1.6934846548      -13.4806929947
 H        -2.9470077073       -1.7111380422      -12.3411440990
 H         0.1062137490        1.0098945126      -11.2803593313
 H         0.4896176695       -0.3446341376      -12.1989575619
 H         0.2678346714       -0.3298590688      -10.3325175371
 H        -0.3491717855        4.0589613743      -19.0806301894
 H        -0.5292461597        2.3255750463      -18.5304426001
 H         0.9298595276        3.2951036208      -18.1189965045
 H        -0.6997320791        5.8227215337      -15.9317669775
 H         0.1965900108        5.7312554997      -17.4008003447
 H         0.9488566155        4.9387380868      -15.9281372420
 H        -8.8305546447        3.8516613044      -18.1383438100
 H        -7.6372372657        4.8934008954      -18.9323604898
 H        -7.4352323857        4.3009791574      -17.2524635726
 H        -8.6356402802        1.6596863635      -18.0029751745
 H        -7.0719279672        1.6611467374      -17.2160675159
 H        -7.2001106608        0.7196550658      -18.8126557965
 H        -9.6122970241        1.4796918707      -24.8738028517
 H       -10.8119903571        0.5027689958      -23.9037736604
 H        -9.9351841213       -0.2574733155      -25.2217019305
 H        -8.6139983428       -1.9484311276      -24.2340450788
 H        -9.3397177529       -1.7486591087      -22.4743383285
 H        -7.6170806905       -1.6517728579      -22.8458270438
 H        -2.3810792135        2.8131014370      -26.9339358219
 H        -4.0190784201        2.0174896133      -27.4168552628
 H        -2.5810434775        1.1062653958      -27.0983238027
 H        -2.1147993937        1.7419378680      -23.4821144423
 H        -1.2477974581        2.7400803436      -24.8206070353
 H        -1.4929190230        0.9615315441      -24.9577764466
 Na       -1.5156775589       -3.8834514627       -4.3632872902
 Na       -5.5925924250        2.1506562819      -22.3758526316
