232

 C        -3.7242941705        4.4836279213      -25.6702832344
 C        -4.0639455548        3.2473590172      -24.7828103596
 O        -4.6303229856        3.4427288492      -23.7464656946
 C        -3.4744672333        1.8969779648      -25.2451660455
 C        -4.3908395928        0.8269134703      -24.5303942746
 O        -4.2600028763        0.8617742190      -23.3179074342
 C        -5.2886167093        0.0598593833      -25.4061223676
 C        -6.4002915402       -0.6726444420      -24.5620806047
 C        -7.4495219513        0.4100434486      -24.1931931002
 O        -7.1584152835        1.6038570504      -24.3464082475
 C        -8.8205656800       -0.0418165912      -23.3948660296
 C        -8.5535203584        0.8880392448      -22.0466870187
 O        -7.5764113415        0.6526125185      -21.3259838147
 C        -9.4750984536        2.0203234498      -21.7658089657
 C        -9.3997795148        2.6425458102      -20.3860219635
 C        -7.9216489028        3.0385726493      -20.2431078019
 O        -7.4383432244        3.8238465540      -20.9766032239
 C        -7.1661444406        2.8775761628      -18.8424883680
 C        -5.6535941149        2.9576774004      -19.0251882180
 O        -5.1291110937        2.6151692507      -20.0613173043
 C        -4.7896951865        3.4427937677      -17.7486285306
 C        -3.2881208915        3.1250603917      -17.8283697261
 C        -2.4307871866        4.0964545880      -16.9936521762
 O        -2.9658213964        4.8464767074      -16.2600852417
 C        -0.9123317056        3.8542108262      -17.0214987044
 C        -0.7340585981        2.7941278248      -15.8908589584
 O        -0.1130556363        1.7689897881      -16.0439608795
 C        -1.4855615283        3.0425600111      -14.5297989758
 C        -0.9730478167        2.1403987273      -13.3672558603
 C        -1.9680457649        0.9612844744      -13.1689174529
 O        -2.8565229132        0.8073039051      -13.9843241049
 C        -1.6416404862        0.0030383752      -11.9752562628
 C        -2.6286007266        0.3898925039      -10.7677599856
 O        -2.2603074398        1.1636467372       -9.9226236129
 C        -4.1243552082       -0.0163903477      -10.8125940698
 C        -4.6563899985        0.1602773400       -9.3932703142
 C        -4.0894915674       -0.9349012389       -8.6445849985
 O        -4.1007394733       -2.0798548791       -9.0877481426
 C        -3.7767447842       -0.7467065092       -7.0995734553
 C        -2.8003245250       -1.8588733409       -6.5787610455
 O        -2.9880394397       -2.5179769719       -5.5820991181
 C        -1.5699753158       -2.0901323303       -7.4801852087
 C        -0.2164333647       -2.1128619333       -6.6965065436
 C         0.3932656164       -3.4984094226       -6.9701618957
 O        -0.2496455708       -4.2411991929       -7.6482825857
 C         1.7893023884       -3.9116130127       -6.2881433399
 C         1.8544349567       -3.5840741273       -4.7570954329
 O         0.7762568975       -3.5874862078       -4.0619855524
 C         3.2408600756       -3.4932830317       -4.0681004781
 C         3.1816300469       -2.2686452483       -2.9755016120
 C         2.7184304986       -0.9271689083       -3.6061297992
 O         2.4137280623       -0.8433420692       -4.7633719820
 C         2.6331695606        0.3235672146       -2.7094721948
 C         1.1587609735        0.1503123412       -1.9695285062
 O         1.1218270816       -0.5047358092       -0.9667557372
 C        -0.0417915744        0.7413021647       -2.6946816482
 C        -1.4146626849        0.1764872437       -2.1602257042
 C        -1.3781224583       -1.3402191689       -2.2873338905
 O        -1.3544807817       -1.7529515011       -3.4827797828
 C        -1.6716615656       -2.3193364546       -1.0922351081
 C        -2.9705648113       -3.0433576628       -1.3764362353
 O        -3.0267292099       -3.7596912930       -2.3898322871
 C        -4.1613900635       -2.9892256646       -0.4285777656
 C        -4.5180671537       -4.4249929769        0.0045371706
 C        -3.3771643463       -5.1337308187        0.8066058193
 O        -2.4307373837       -4.5074551684        1.2317209764
 C        -3.4288465793       -6.7655662161        1.0318251779
 C        -3.2942824924       -7.3209968700       -0.3977440843
 O        -4.2183820436       -7.8509434218       -0.8971972022
 C        -1.8169301842       -7.3489698206       -1.1482118114
 C        -1.8687361710       -8.0154550109       -2.4817748550
 C        -1.6909969622       -6.9955602255       -3.6523623556
 O        -0.9872256077       -6.0212095173       -3.4931639279
 C        -2.5679926385       -7.2106518932       -4.8882121849
 C        -3.8491333355       -6.1247544006       -4.7093124345
 O        -3.6853348468       -5.0816387658       -5.3848217679
 C        -5.1786481503       -6.5618082730       -4.2206314039
 C        -6.2903737778       -5.5198109356       -4.2252145768
 C        -7.2408932078       -5.8481497715       -3.0334910341
 O        -6.9451997614       -6.6535220418       -2.2173548419
 C        -8.6555769697       -5.0909905863       -2.9941327825
 C        -8.3898143081       -3.5991475044       -2.6430471379
 O        -7.5592207866       -3.3741133192       -1.8115337154
 C        -9.2188432181       -2.4930999877       -3.2155077233
 C        -9.3609913744       -5.3719822004       -4.3258785553
 C        -9.3881503816       -5.8185162204       -1.8146604212
 C        -1.8694267411       -6.8743539246       -6.2153184903
 C        -3.1872415494       -8.5961352173       -5.0259594300
 C        -2.2229739103       -7.1539141105        2.0446706858
 C        -4.7303307643       -7.2148438411        1.6438976906
 C        -0.5216756949       -3.4565339196       -1.1982765173
 C        -1.7595040488       -1.5474558551        0.3454380227
 C         3.6995019837        0.2709323995       -1.5378977875
 C         2.5958449151        1.7672626970       -3.4653431641
 C         1.7724554042       -5.4694252139       -6.3311262188
 C         2.8820608692       -3.3416036184       -7.2038853298
 C        -3.0469522149        0.6326907649       -6.7683817208
 C        -5.0775844538       -0.6820114074       -6.2020894315
 C        -1.9069316037       -1.4676649005      -12.5217235463
 C        -0.2249168309        0.0374364083      -11.4611965210
 C        -0.4537700417        3.2440267437      -18.3683561524
 C        -0.1896590612        5.2693695904      -16.8428778908
 C        -7.8759660344        3.9521321573      -17.9499459658
 C        -7.2800375814        1.4404627821      -18.3109083274
 C        -9.9466934440        0.3964505139      -24.3580064563
 C        -8.8860174836       -1.5590687927      -23.0762843590
 C        -3.3244318912        1.7553070434      -26.7644901737
 C        -2.0291770413        1.7790981740      -24.5341208432
 H        -4.0632270133        4.2946283582      -26.6739646711
 H        -2.6503537528        4.3968240381      -25.5813040504
 H        -4.0495258192        5.3734082208      -25.1309788095
 H        -4.6883064289       -0.6780227638      -26.0005931515
 H        -5.7905437580        0.7360802791      -26.0695137745
 H        -5.8388077252       -1.0895590235      -23.6785648399
 H        -6.8812092530       -1.4285551872      -25.2036696293
 H       -10.5568006528        1.6702102523      -22.0266614507
 H        -9.3831241394        2.7170844767      -22.5327074977
 H        -9.7575437648        1.8809108643      -19.6287854697
 H        -9.9380156159        3.6218533559      -20.2950383572
 H        -5.1182022453        3.0157528724      -16.7986417252
 H        -4.8647931680        4.4922092479      -17.7470850925
 H        -2.9674935845        3.0262998584      -18.8859723263
 H        -3.0775440829        2.0686562666      -17.4293705615
 H        -2.5244512617        2.8935821877      -14.7593408809
 H        -1.0977969402        4.0447581784      -14.1928493708
 H        -0.9822338512        2.8104597002      -12.4859597860
 H         0.0263053782        1.7570998342      -13.4221663197
 H        -4.3472790044       -1.0357843954      -11.1778701606
 H        -4.7273654959        0.7212743849      -11.4299344440
 H        -5.7023250408        0.0116929105       -9.5310539928
 H        -4.4619704847        1.2601827885       -8.9606340131
 H        -1.5819650122       -1.3088736737       -8.2788858850
 H        -1.7117042434       -3.1498255104       -7.8127626222
 H        -0.5611831158       -2.0600522493       -5.6357007779
 H         0.4741265030       -1.2820703237       -6.6858626462
 H         4.1455085421       -3.1721578697       -4.6862305630
 H         3.3193419111       -4.4465418730       -3.4844507777
 H         4.2096869427       -2.1567477622       -2.6082649073
 H         2.6105182466       -2.5186197785       -2.0432080771
 H         0.0203896590        0.5997067107       -3.7198665786
 H         0.0087982343        1.7713284551       -2.6380625548
 H        -2.2568027195        0.5269125442       -2.7654761282
 H        -1.5480789860        0.4542289135       -1.1272958888
 H        -5.0851425353       -2.5937748830       -0.9141639689
 H        -3.8742565391       -2.3711767255        0.4648884151
 H        -4.5352296284       -5.0225991605       -0.9737521278
 H        -5.4653637180       -4.5067536075        0.5281687497
 H        -1.1010029317       -7.8282482614       -0.5153532450
 H        -1.5275787774       -6.3402583980       -1.0755295996
 H        -2.7995588017       -8.5491711753       -2.6184153181
 H        -1.1908227516       -8.8502319047       -2.5997110187
 H        -5.0720920653       -7.0704886894       -3.2684579947
 H        -5.5268073460       -7.3582698811       -4.9270569234
 H        -6.8081991568       -5.4549399245       -5.2279756132
 H        -5.7785726531       -4.6077700552       -4.0659777558
 H        -8.9785711558       -2.4035389421       -4.3015178478
 H        -9.0322524326       -1.6100037622       -2.5630227414
 H       -10.3344564754       -2.7658076488       -3.0467783637
 H        -8.7408590427       -4.8425532493       -5.0954249717
 H       -10.3697681372       -5.0356747432       -4.4831536896
 H        -9.2963843388       -6.4671335246       -4.4205095792
 H        -9.4033879146       -6.8805531189       -2.0152376097
 H       -10.4292324680       -5.5653236858       -1.8799830154
 H        -8.9602047534       -5.5084717674       -0.9071889906
 H        -2.6325178529       -7.0144647590       -6.9700385576
 H        -1.1351518664       -7.6778986736       -6.3674680566
 H        -1.5029002472       -5.8288268006       -6.2931511793
 H        -3.8932984603       -8.6341104561       -5.8272782356
 H        -3.8227855197       -8.8151566734       -4.0924650297
 H        -2.4200710449       -9.2834849228       -5.0703854208
 H        -2.0071687739       -8.1633858764        2.0146811541
 H        -2.5439468808       -6.8351583953        2.9905374141
 H        -1.2682643927       -6.6897644492        1.8400617721
 H        -5.0393533208       -6.5382136406        2.4592378568
 H        -4.6585178427       -8.2193726433        2.0741438797
 H        -5.5367536979       -7.2077984966        0.9178761370
 H        -1.0670445766       -4.4519026033       -1.2433467233
 H         0.1746621160       -3.4017070722       -0.3225856080
 H         0.0739938373       -3.3576522858       -2.1458361543
 H        -0.8222110345       -0.9929196872        0.5317630083
 H        -2.0740089966       -2.2388899122        1.0350841897
 H        -2.5543091700       -0.8342324578        0.3152154416
 H         3.2677649243       -0.2649838043       -0.7321258323
 H         3.8393169020        1.3484093387       -1.2799605830
 H         4.6317547998       -0.0676791609       -1.8854307774
 H         1.6201453682        1.8907290920       -3.8573487413
 H         3.3324005514        1.8716742478       -4.2024947750
 H         2.6891553437        2.5976217865       -2.7927972909
 H         2.7721926090       -5.8743972924       -6.0154853970
 H         1.5927902109       -5.9113397638       -7.3219589013
 H         1.0715608886       -5.9638800844       -5.6627027174
 H         2.3823383683       -2.7334088618       -8.0070276525
 H         3.3912051985       -4.0409123812       -7.8651358464
 H         3.7322211484       -2.7374473223       -6.9056587533
 H        -2.1451680599        0.8429124993       -7.3457527821
 H        -2.7764942443        0.7044564990       -5.8050347142
 H        -3.8102808686        1.3947565056       -7.0268537855
 H        -4.8076762063       -1.0847463149       -5.2101871404
 H        -5.9313239831       -1.2723324102       -6.5461952291
 H        -5.4137284233        0.3574057236       -6.1409874667
 H        -2.5624149593       -2.0452466366      -11.7922256836
 H        -1.0079091887       -1.9678010669      -12.6446402137
 H        -2.2584823598       -1.4230292710      -13.5773159946
 H         0.1065513721        1.0267778349      -11.0380793825
 H         0.4661200520       -0.1871013917      -12.2883743345
 H         0.0312695617       -0.6420145801      -10.6398004881
 H        -0.7821063618        3.8927622399      -19.1326879955
 H        -0.6780988281        2.2118789119      -18.5639728087
 H         0.6865277421        3.2228415143      -18.2611277139
 H        -0.2833004453        5.7484627830      -15.8415572962
 H        -0.4209075523        5.9324054362      -17.6798877463
 H         0.8616503415        5.0036273167      -16.9516861759
 H        -8.8007833639        4.1588024278      -18.4066832243
 H        -7.1976691007        4.8689501407      -17.8909409234
 H        -8.1637840982        3.6135993597      -16.9285747432
 H        -8.3544218490        1.2281679677      -18.0545036491
 H        -6.5616186485        1.3688767347      -17.4650942899
 H        -7.0335301466        0.8471573861      -19.1699736170
 H        -9.8409545177        1.3862476094      -24.7169039564
 H       -10.8744218708        0.1546999419      -23.8599009211
 H        -9.9610010341       -0.2229365741      -25.2868874551
 H        -9.3150647115       -2.0005948221      -23.9847170034
 H        -9.7189269660       -1.7118573737      -22.3480782767
 H        -7.9460284241       -2.0906836060      -22.7332083292
 H        -2.8467746314        2.5601498385      -27.2763785331
 H        -4.3078358786        1.8132638754      -27.2897096171
 H        -2.8134441274        0.7920008492      -27.0115064227
 H        -2.2302102162        1.5422569760      -23.4889458269
 H        -1.4689269410        2.7021480685      -24.6706739219
 H        -1.5842913651        0.9740905792      -25.1311964491
 Na       -1.5934831383       -3.9483819088       -4.2900544850
 Na       -5.6220353792        2.0802064727      -22.1459510592
