232

 C        -3.7336953934        4.3181659698      -25.7773490968
 C        -4.2120374165        3.1822655618      -24.8471366684
 O        -4.9262922835        3.4010300370      -23.9002236161
 C        -3.6413033286        1.7833683940      -25.1061106590
 C        -4.4361252117        0.6614118968      -24.3742736906
 O        -4.2813110259        0.4754624954      -23.1533617459
 C        -5.2799567731       -0.2550108372      -25.2082968344
 C        -6.5606586020       -0.8196499479      -24.4319509046
 C        -7.3983623772        0.3336291874      -23.9827949605
 O        -7.2180267621        1.4822902643      -24.3723419416
 C        -8.7166625988        0.0092486242      -23.2622587285
 C        -8.8200998572        0.8969932079      -21.9365013324
 O        -7.9106404504        0.6259326699      -21.1061808009
 C        -9.8990697257        1.7800655462      -21.4992496723
 C        -9.6386067756        2.4934324468      -20.1056593378
 C        -8.1787407475        3.0225937227      -20.0169026779
 O        -7.8001740604        3.6563585195      -20.9881046780
 C        -7.3565795950        2.8471534798      -18.7041888357
 C        -5.8256455717        3.0335720436      -18.9958867585
 O        -5.3184527430        2.4311254532      -19.9623342130
 C        -4.8974001594        3.7742682546      -18.0481180457
 C        -3.4878032554        3.2809805607      -17.9164813556
 C        -2.4861996713        4.2785996782      -17.1106115701
 O        -2.8936932371        5.3430217028      -16.6098231880
 C        -0.9696223246        3.9000088949      -16.8589580379
 C        -0.8088625514        2.8898588871      -15.6062455548
 O        -0.2362552369        1.8085861471      -15.7236345132
 C        -1.1391724926        3.3956004701      -14.2446751947
 C        -0.8334573964        2.3387638400      -13.2125834946
 C        -1.6749718533        1.0766823637      -13.3263761964
 O        -2.4678225816        0.9794443608      -14.2456499580
 C        -1.7069939723        0.0135965961      -12.2800131672
 C        -2.5268536801        0.6508239309      -11.0995842653
 O        -2.1485525300        1.6545623066      -10.4950231050
 C        -3.9959074228        0.1171789646      -10.8530261499
 C        -4.6030204340        0.4973245248       -9.4163371372
 C        -4.2017790699       -0.5953199118       -8.4162377037
 O        -4.2569387192       -1.7778447507       -8.7155345166
 C        -3.6453466765       -0.2507818014       -7.0246446261
 C        -2.5838106428       -1.3619825735       -6.6296921792
 O        -2.7211655853       -1.7083059401       -5.4577159692
 C        -1.4815639558       -1.9368744044       -7.5595365773
 C        -0.2605406516       -2.2954927861       -6.6465535591
 C         0.6666785547       -3.4885629891       -7.1275910595
 O         0.6613678082       -3.8341144802       -8.3169857280
 C         1.8551498916       -4.1346468960       -6.2735960459
 C         1.7806049276       -3.7607856021       -4.6727435555
 O         0.6042293295       -3.7155260404       -4.2439713215
 C         3.0214332181       -3.4904138127       -3.8280757758
 C         3.2251844138       -2.1942820303       -3.0405477201
 C         2.6007204159       -0.9627330279       -3.5216936562
 O         1.9455546015       -0.9678431122       -4.5922081237
 C         2.7010657395        0.3748976317       -2.6357368103
 C         1.2526547131        0.2827095990       -1.9060600599
 O         1.0921745088       -0.0879539021       -0.7583766246
 C         0.0225303108        0.8072440214       -2.7039035644
 C        -1.2585799850        0.3621426986       -1.9802438927
 C        -1.4835379546       -1.1511180302       -2.1609899473
 O        -1.2450364555       -1.6307036627       -3.1973944302
 C        -1.8789007230       -1.9906097765       -0.9050401458
 C        -2.9934912079       -3.0849286383       -1.3235611621
 O        -2.9650826661       -3.6922472938       -2.3792544346
 C        -4.1133659923       -3.4195890540       -0.2617994902
 C        -4.3063639628       -4.8678475706        0.2196574916
 C        -3.0002953545       -5.4843739914        0.7871346786
 O        -1.9874951892       -4.8814701362        1.0325036735
 C        -2.9079962241       -7.0172654147        0.9809611152
 C        -2.9832505759       -7.6060643671       -0.4843150120
 O        -4.0328532320       -7.8479281694       -1.0742207695
 C        -1.6754163580       -7.6975734107       -1.2873288727
 C        -1.9882232448       -8.2911350655       -2.6285330684
 C        -2.0540707715       -7.1326872539       -3.7577809589
 O        -1.5076683846       -6.0476507374       -3.5818391956
 C        -2.7248759951       -7.3277507284       -5.1562691376
 C        -3.8068721710       -6.2668898150       -5.0728069115
 O        -3.5753582664       -5.1071510028       -5.1504701298
 C        -5.2319836008       -6.7944188265       -4.5449080236
 C        -5.9772720598       -5.6118947822       -4.0117249464
 C        -7.1902613184       -6.1307903366       -3.1705695423
 O        -7.1709254568       -7.2078625437       -2.5828577971
 C        -8.5229982729       -5.3084219210       -3.1718165980
 C        -8.2696436259       -3.7065618797       -2.9270113197
 O        -7.2398125492       -3.2776251860       -2.3968906581
 C        -9.4608496567       -2.7029778828       -3.1000669131
 C        -9.2195025588       -5.6109500036       -4.5364110332
 C        -9.5556043838       -5.7998133882       -1.9948908906
 C        -1.7860581441       -7.0210324977       -6.3954316844
 C        -3.2376859425       -8.8110354659       -5.2889348204
 C        -1.6439963899       -7.3667775475        1.7735262879
 C        -4.1616883849       -7.7132097474        1.6389228477
 C        -0.4730621277       -2.8965163145       -0.7349015907
 C        -2.1853373553       -1.1086689949        0.3959996208
 C         3.8381575345        0.3824662498       -1.6067555708
 C         2.7845703668        1.6165152241       -3.5495367578
 C         1.4906700385       -5.6176332131       -6.3174667612
 C         3.1554220411       -3.8611579659       -7.0505320993
 C        -2.9921617379        1.1616187459       -7.1506482823
 C        -4.8149720116       -0.2211003566       -5.9882118426
 C        -2.3757725475       -1.2605893513      -12.7462979319
 C        -0.1654781910       -0.1265471270      -11.7226520762
 C        -0.4684720051        3.1685788562      -18.1186560804
 C        -0.1470213742        5.1868184183      -16.5046391255
 C        -8.0128170370        3.7941576359      -17.6994411372
 C        -7.3533897506        1.3613061960      -18.0734806339
 C        -9.8529724824        0.3294519271      -24.2674436904
 C        -8.7742026796       -1.4590141975      -22.8493936967
 C        -3.5147925349        1.4347051158      -26.5749196135
 C        -2.2725983654        1.8178109054      -24.3022206791
 H        -4.3089006986        4.2213343276      -26.6964481560
 H        -2.6917793891        4.0542140421      -26.0725143232
 H        -3.7476905431        5.2881660571      -25.2737895589
 H        -4.5527032979       -1.0335162466      -25.5592527100
 H        -5.7223324544        0.1754536243      -26.0843116843
 H        -6.2026937273       -1.3598483886      -23.5647046429
 H        -7.2243042450       -1.3801229931      -25.1835406413
 H       -10.8298124280        1.3581827524      -21.4749122437
 H       -10.0781532333        2.6031934962      -22.2876415585
 H        -9.9421191982        1.8623116663      -19.2838718924
 H       -10.3319025961        3.4181915164      -20.0177262935
 H        -5.3654429518        3.5190140613      -17.1041388716
 H        -4.8607412993        4.8519350443      -18.0303861979
 H        -3.0387490703        3.2308406184      -18.9784855114
 H        -3.4821528172        2.2586368327      -17.5081523163
 H        -2.2255648636        3.5697301104      -14.2948130904
 H        -0.5365314175        4.3436630896      -14.1032042196
 H        -0.9837291262        2.7045628719      -12.1716505300
 H         0.1781928881        1.9769978614      -13.2278784716
 H        -4.1095330780       -0.9884956179      -10.8432224258
 H        -4.4898389011        0.5087149625      -11.7965398501
 H        -5.8303991001        0.3352620591       -9.4134778993
 H        -4.3947514497        1.5622394646       -9.2571753607
 H        -1.1854105561       -1.2819004015       -8.4193401299
 H        -1.7794285917       -2.9673719213       -7.9556826855
 H        -0.6287722124       -2.6130847284       -5.7124190526
 H         0.3584003727       -1.4244245821       -6.4064551069
 H         3.9991978057       -3.6324510278       -4.3413514015
 H         3.0257942100       -4.3968355202       -3.0913317075
 H         4.3000940726       -2.0887712437       -2.8018556859
 H         2.7473024295       -2.3643171861       -2.0401860427
 H        -0.1104682341        0.4529075868       -3.6958181359
 H         0.1130172020        1.8573345327       -2.6282670102
 H        -2.0830841847        0.8073927987       -2.5022364641
 H        -1.1873725838        0.6282327153       -0.9267010105
 H        -5.0820366861       -3.0908992928       -0.7322860401
 H        -4.0991319396       -2.7535380012        0.6539438684
 H        -4.6609494555       -5.5686589222       -0.5264605753
 H        -5.0809374647       -4.9725666059        1.1213046146
 H        -0.9984631741       -8.3479200574       -0.7591256068
 H        -1.2084746481       -6.7371056253       -1.2819842171
 H        -2.9322551592       -8.8690437681       -2.6571347569
 H        -1.2337688211       -9.0393694408       -2.9202581862
 H        -5.1965192084       -7.4817212430       -3.7573873592
 H        -5.7885865633       -7.3233789392       -5.4267270260
 H        -6.2263486722       -4.8803032128       -4.7473041203
 H        -5.3515816064       -5.1116102662       -3.2133547837
 H        -9.9106353070       -2.8421017170       -4.1383611184
 H        -9.0106719437       -1.6845681282       -2.8158618353
 H       -10.2378115589       -2.7979015558       -2.3288864209
 H        -8.6900970726       -5.2421926228       -5.4247682908
 H       -10.3087823138       -5.3442988682       -4.4844230429
 H        -9.2089550919       -6.6622840823       -4.7174643148
 H        -9.8553265015       -6.7901423205       -2.1534328404
 H       -10.3063532373       -5.0377683046       -1.9397837649
 H        -9.0465048452       -5.8822777672       -1.0515068359
 H        -2.2572253388       -7.4714816759       -7.2885501027
 H        -0.7768629343       -7.4627700910       -6.2100486704
 H        -1.7964580344       -5.9134346801       -6.4781252832
 H        -3.6581229697       -9.0957327545       -6.2585709107
 H        -3.7514029058       -9.0740996004       -4.4484012507
 H        -2.2501933009       -9.3475759431       -5.2525021276
 H        -1.6301803458       -8.3907912345        2.1321620531
 H        -1.5812619364       -6.6725517132        2.5955231748
 H        -0.7926726864       -7.2254472479        1.2116880854
 H        -4.3989363691       -7.2183743461        2.5821245964
 H        -4.0710165717       -8.7738069010        1.8336263978
 H        -5.0256023224       -7.6473261038        0.9539335984
 H         0.0945738964       -3.1564930068       -1.6478617879
 H        -0.8117700352       -3.8869810688       -0.3575536724
 H         0.1600188065       -2.2571480869       -0.0593539776
 H        -1.4478082976       -0.3938043415        0.5564863485
 H        -1.9466728220       -1.6866836428        1.2951661048
 H        -3.1598755306       -0.7061228537        0.3593581437
 H         3.6594861352       -0.5627488210       -1.0817658651
 H         3.6328800405        1.1402316364       -0.9652717840
 H         4.8394981968        0.5822104317       -1.9802506679
 H         2.1230725138        1.4902961930       -4.3999433538
 H         3.8197653780        1.8064871188       -3.8569367818
 H         2.5399747403        2.4475124800       -2.9203450731
 H         2.3741873129       -6.2291135242       -6.1527490601
 H         1.1514116751       -6.1308677820       -7.1847640165
 H         0.7418088625       -5.8196563306       -5.5751698060
 H         3.9203569266       -3.2225068459       -6.6117838156
 H         2.9478287620       -3.1942102041       -7.9223162271
 H         3.7870759709       -4.7180447977       -7.3045183746
 H        -2.4655035199        1.2589643819       -8.0532352050
 H        -2.3545986860        1.3401390863       -6.2209856176
 H        -3.7048257052        1.9229232794       -7.1318696940
 H        -4.4698069184        0.2693620285       -5.0504899337
 H        -5.2010858116       -1.2038763985       -5.8315401766
 H        -5.6415313949        0.3899753971       -6.3749500240
 H        -2.8869118848       -1.1726937603      -13.6393778435
 H        -2.9971179554       -1.5209123728      -11.8388320469
 H        -1.6415164058       -2.0219718418      -12.9773429742
 H         0.0670162888        0.6318684846      -11.0324569449
 H         0.7026909028       -0.0874781759      -12.3691951134
 H         0.0061306239       -1.1480534484      -11.3903825050
 H        -0.7133669899        3.8226211529      -18.9589624942
 H        -1.1701836128        2.3200798872      -18.1427559827
 H         0.5321670822        2.8471689708      -18.1974940696
 H        -0.4895417414        5.6378523627      -15.6088704959
 H        -0.0209027933        5.9121263796      -17.2834112818
 H         0.8393882524        4.7535944478      -16.2009792649
 H        -9.1251952231        3.5004732648      -17.7066177642
 H        -7.9364147319        4.8219268047      -17.9557992701
 H        -7.4596152220        3.6725919412      -16.7654978529
 H        -8.2019930825        1.3494626987      -17.4345943796
 H        -6.4979738530        1.3695318981      -17.3471055479
 H        -7.3760068328        0.5205481922      -18.8423282320
 H        -9.8102838899        1.4370483239      -24.4229592297
 H       -10.8554756407        0.1637140477      -23.9304608727
 H        -9.7028238970       -0.1730657064      -25.2040812255
 H        -8.8422156213       -2.1257459736      -23.7828752288
 H        -9.4791909764       -1.8766354819      -22.1045122973
 H        -7.7763131547       -1.6573304078      -22.4583276374
 H        -2.7992685562        2.1084192336      -27.1235066964
 H        -4.4598791060        1.5170273009      -27.1083205513
 H        -3.1181037625        0.4460334556      -26.8801115738
 H        -2.5505387874        1.9213555101      -23.2208169187
 H        -1.6558526034        2.6003998570      -24.6953580953
 H        -1.8837151838        0.8189814011      -24.5269004902
 Na       -1.8233164535       -3.7785430464       -4.2596489803
 Na       -5.9391543640        2.2606405352      -22.3783849050
