232

 C        -3.8160736768        4.4080695531      -25.7659541599
 C        -4.2290016677        3.1772852233      -24.8717502543
 O        -4.9617435888        3.4977277338      -23.9666200151
 C        -3.6304282682        1.7039869113      -25.1172435499
 C        -4.5404113969        0.6423838453      -24.2240204810
 O        -4.6383859383        0.4740511483      -23.0421640806
 C        -5.3459754832       -0.2834585656      -25.2094830117
 C        -6.5525709743       -0.8574607408      -24.3916801494
 C        -7.4740124233        0.3097389510      -24.0211674888
 O        -7.1374660792        1.4086264428      -24.2464527686
 C        -8.7625390297       -0.0463469189      -23.2343585020
 C        -8.8508584979        0.7366495145      -21.7624887090
 O        -7.8908907857        0.7839512576      -21.0562135354
 C       -10.0198172582        1.6491919656      -21.4935436964
 C        -9.7114724614        2.3314556870      -20.2051899803
 C        -8.2612127208        2.9688045474      -20.1847984595
 O        -7.7818113980        3.7012199961      -21.0318865679
 C        -7.3666009458        2.8310022066      -18.6987516750
 C        -5.8133262992        2.9622266519      -19.0349677761
 O        -5.2682685691        2.5052899585      -20.0168593189
 C        -5.0021396276        3.7267076249      -17.8952708827
 C        -3.4297680611        3.4251865349      -17.8945571130
 C        -2.5176334243        4.3435710901      -17.1104575208
 O        -2.9447070280        5.3443414187      -16.6060378075
 C        -1.0152540066        3.8114254594      -16.9063098852
 C        -0.8346159804        2.9656890410      -15.6105821856
 O        -0.3141726822        1.8703330555      -15.7330586763
 C        -1.1683266468        3.5555297692      -14.1527950485
 C        -0.8324902294        2.4767404648      -13.1985794450
 C        -1.6968026326        1.1794767498      -13.4102972659
 O        -2.4669236594        1.0769068386      -14.3624208637
 C        -1.7381814794       -0.0794239002      -12.1935351279
 C        -2.6080903868        0.6441346518      -11.0555121098
 O        -2.0868828264        1.5956508038      -10.5188338225
 C        -4.0005057907        0.1752061203      -10.8317916841
 C        -4.6180507735        0.4876474831       -9.4783485762
 C        -4.1944668792       -0.5638120146       -8.4624400948
 O        -4.2501229274       -1.7512147830       -8.7886839841
 C        -3.5232747999       -0.1471478920       -7.0835911444
 C        -2.5021682937       -1.2330163550       -6.5767971630
 O        -2.5750281911       -1.6765617461       -5.4355934181
 C        -1.5003383453       -1.8225108369       -7.4907312447
 C        -0.2162730220       -2.1887982462       -6.7352898010
 C         0.7196980270       -3.3713001271       -7.2370923424
 O         0.6382993499       -3.7406484142       -8.3331454752
 C         1.8020804167       -4.0847350074       -6.2754159776
 C         1.6960117255       -3.7718389224       -4.6857087760
 O         0.6843041342       -3.7834432179       -4.1086458553
 C         3.0349056343       -3.6656348627       -3.8389707023
 C         3.3207296159       -2.2759644363       -3.0575705994
 C         2.5778376438       -0.9981298974       -3.5891494539
 O         2.0143236272       -0.8542455985       -4.6365313328
 C         2.5613627883        0.2992483960       -2.5643888551
 C         1.2064109097        0.3479685583       -1.8080255161
 O         1.1121190059        0.0337149449       -0.6487200604
 C        -0.0182041145        0.8017258779       -2.6784734273
 C        -1.3845141943        0.5202301340       -2.0255854825
 C        -1.5611216408       -1.0603484083       -2.1307032920
 O        -1.3478912760       -1.4610870417       -3.2745664606
 C        -1.8533063831       -2.0149519455       -0.8421445345
 C        -2.9266392168       -3.0928213984       -1.1164626136
 O        -2.9515878758       -3.7000683805       -2.2218349335
 C        -4.0260566671       -3.4638217873       -0.1248452193
 C        -4.2476609589       -4.9406809467        0.1252080534
 C        -3.0134715915       -5.5525415107        0.7952646394
 O        -2.0847493360       -4.8775242094        1.0866776880
 C        -2.8779948860       -7.1168299849        0.9042652138
 C        -2.9145864268       -7.6699521425       -0.5450634277
 O        -3.9775244811       -7.8239193265       -1.0795024145
 C        -1.5271258738       -7.9087786558       -1.3731881365
 C        -1.9502962685       -8.3291424317       -2.8458173538
 C        -1.9305125135       -7.1679038680       -3.8229958589
 O        -1.5475596147       -6.0100968488       -3.4949936971
 C        -2.6814250604       -7.3957774057       -5.1046143011
 C        -3.8865592457       -6.3379941761       -5.0210611814
 O        -3.7235021695       -5.1294139286       -5.1528852921
 C        -5.3153619038       -6.8649471512       -4.5671416167
 C        -6.0294694036       -5.6914830564       -3.8927208074
 C        -7.2139943882       -6.1952221313       -3.1784889337
 O        -7.1931867229       -7.2604471579       -2.6634901504
 C        -8.4934565852       -5.2536017570       -3.2150003823
 C        -8.2636080510       -3.7605123776       -2.9205749412
 O        -7.1635493426       -3.3611849624       -2.6058616521
 C        -9.4572994180       -2.8304195424       -3.0981658545
 C        -9.1983041240       -5.4852562206       -4.5530775268
 C        -9.4181774777       -5.7867300104       -2.1148409498
 C        -1.8197746217       -7.0448017335       -6.3241912315
 C        -3.2959250774       -8.8325214544       -5.3567976085
 C        -1.5479198280       -7.4069920858        1.6109608886
 C        -4.1139239910       -7.6936393706        1.6963978010
 C        -0.4957509722       -2.7292277580       -0.4978455829
 C        -2.0643982770       -1.2338917755        0.3640736076
 C         3.8330969249        0.3584766608       -1.7273693048
 C         2.6154774981        1.5613865566       -3.4927945541
 C         1.4256470783       -5.6378866569       -6.4562034303
 C         3.1072086323       -3.8667216457       -6.9590662279
 C        -2.7243495042        1.2059374131       -7.1335630044
 C        -4.6914147654       -0.1296114829       -5.9797959543
 C        -2.2935798597       -1.2755398076      -12.9167496183
 C        -0.2663849090       -0.2737916088      -11.6220999359
 C        -0.3059980892        3.1650129548      -18.1677693094
 C        -0.1047154811        5.0791308612      -16.5600649250
 C        -7.9960884180        3.8212978203      -17.6481463827
 C        -7.4081952163        1.4154544035      -18.0410677549
 C        -9.8908987324        0.4603335784      -24.1690911257
 C        -8.8359112742       -1.5792599014      -22.8612614051
 C        -3.3745418701        1.3284806752      -26.5721801235
 C        -2.1720843332        1.8072950571      -24.3501287566
 H        -4.6373073011        4.5311068932      -26.5337548372
 H        -2.8839457425        4.2940885233      -26.3194661559
 H        -3.7704590868        5.2654952686      -25.0662432910
 H        -4.7192014496       -0.9613867763      -25.7098612075
 H        -5.9234042033        0.2524133300      -26.0187069814
 H        -6.1103406276       -1.1129161850      -23.4114563183
 H        -7.0866766740       -1.6615139543      -24.9550926297
 H       -11.0061663459        1.2308179191      -21.3303536732
 H       -10.1738611812        2.3303256713      -22.3710348097
 H        -9.7019061049        1.4821368073      -19.4837738559
 H       -10.4268026823        2.9787916612      -19.8225994858
 H        -5.4460723612        3.7148362459      -16.9400988060
 H        -5.0707336606        4.7945567488      -18.1645857156
 H        -3.0844924569        3.4129404993      -18.9101654701
 H        -3.2861753063        2.4504057541      -17.5103102304
 H        -2.3082602711        3.7313399340      -14.1479228288
 H        -0.5934285440        4.4677525124      -13.9708896931
 H        -0.9341331744        2.7213384884      -12.1633770276
 H         0.2369562180        2.1619333655      -13.3212606670
 H        -4.0132229344       -0.9349034408      -10.9717252325
 H        -4.6118839884        0.5907948673      -11.6328314063
 H        -5.5888499153        0.5689739390       -9.6402457333
 H        -4.2273623762        1.5536311802       -9.3047273239
 H        -1.2780653544       -1.0582586444       -8.2779139900
 H        -1.8244165345       -2.7771230387       -7.9968217284
 H        -0.4666526773       -2.4583071307       -5.6596283734
 H         0.3682744033       -1.3210096204       -6.6473839603
 H         4.0426390573       -3.8027348964       -4.2363473335
 H         2.9138625994       -4.5623698170       -3.1816967795
 H         4.4279989808       -2.1597799041       -3.1301046447
 H         3.1262219507       -2.3463131179       -1.9768041149
 H        -0.0963815045        0.1191906672       -3.5743352571
 H         0.0686786583        1.9595498951       -2.9507002369
 H        -2.1420218961        1.0610210232       -2.6357521466
 H        -1.3306164617        0.7546226274       -0.9560279827
 H        -5.0026112873       -3.0986525518       -0.5813287706
 H        -3.9974232960       -2.9237410287        0.7955656930
 H        -4.4291357159       -5.5276825937       -0.8348931833
 H        -5.1198592562       -5.1775849574        0.7639279236
 H        -1.0144981893       -8.8191546439       -1.0004144653
 H        -0.8638703908       -7.0489926738       -1.1430193465
 H        -2.9404529648       -8.8621522405       -2.8613447135
 H        -1.2447265651       -9.1314745489       -3.2444492637
 H        -5.3054200291       -7.7343568306       -3.8341245739
 H        -5.8162977444       -7.1964892931       -5.4600951277
 H        -6.3932480531       -5.0658353064       -4.6752373114
 H        -5.3721672075       -5.0265317776       -3.2344266802
 H       -10.0766456092       -3.1793014900       -3.9553016411
 H        -9.0843598532       -1.7982029587       -3.0804412813
 H       -10.0493155353       -2.8666357848       -2.2060235256
 H        -8.5025812399       -5.2676877809       -5.3323423220
 H       -10.1852184825       -5.0393195297       -4.6561404429
 H        -9.3442158924       -6.6301077793       -4.7696977193
 H        -9.3416229009       -6.8274720288       -2.2242031979
 H       -10.3329357004       -5.3091500751       -2.1508224925
 H        -8.9883310770       -5.6968131534       -1.1248991661
 H        -2.3322384559       -7.2127384579       -7.3168347868
 H        -0.9068865429       -7.5998197229       -6.2612142882
 H        -1.6435513368       -6.0313511233       -6.1244650624
 H        -3.9472353124       -8.8747337410       -6.2026355404
 H        -3.6862436443       -9.2169416768       -4.4400103001
 H        -2.4375230067       -9.4513797644       -5.6823778366
 H        -1.3457329791       -8.4221019016        1.9596235746
 H        -1.5293249961       -6.7796868150        2.4677296785
 H        -0.7565613687       -7.0224185084        0.9825364827
 H        -4.1615520557       -7.1284227288        2.6206472725
 H        -4.0677728625       -8.7631668292        1.9403747426
 H        -5.0411110235       -7.5918227156        1.1302002796
 H         0.1045469625       -2.9487717589       -1.4037275162
 H        -0.7340440057       -3.7536445471       -0.1202971991
 H         0.0577263169       -2.0828259304        0.1050440313
 H        -1.2695862752       -0.6588637205        0.7003156736
 H        -2.0393176679       -1.9757513789        1.1441578424
 H        -2.9963925628       -0.7179245643        0.2907012971
 H         3.8098489121       -0.4406491207       -1.0146495236
 H         4.0089861482        1.3691982181       -1.2828735558
 H         4.6572647468        0.1613438034       -2.4656909747
 H         1.8422530607        1.6071277108       -4.1866072682
 H         3.5194746401        1.5292217344       -4.0628668644
 H         2.6844283182        2.3537263287       -2.8158656174
 H         2.1319650189       -6.3804855799       -6.1562969524
 H         1.4273654505       -5.9090871829       -7.5343382979
 H         0.3869992180       -5.8982486333       -6.1463252091
 H         3.7370542968       -3.2714558140       -6.3573833099
 H         3.0710778298       -3.2569155587       -7.8478612338
 H         3.7897199288       -4.7046741502       -7.1138860177
 H        -1.9994862585        1.2967279449       -7.9441009957
 H        -2.3120537400        1.2149679415       -6.1067695341
 H        -3.3256510446        2.0894413011       -7.1772672445
 H        -4.2854172677       -0.0464453247       -5.0013021014
 H        -5.2558748709       -1.0952174463       -6.1355497789
 H        -5.4227296466        0.6788236355       -6.1091655114
 H        -2.9481734775       -0.9370766733      -13.7312810037
 H        -2.8405653600       -1.8770952256      -12.1895306106
 H        -1.5394096422       -1.7747020226      -13.5081139461
 H         0.0858854134        0.5014243113      -11.0028414170
 H         0.5056419725       -0.3266413426      -12.3486982611
 H        -0.1460063921       -1.2723334272      -11.2314935766
 H        -0.3908661794        3.8836942368      -19.0478289153
 H        -0.6745622659        2.1550195688      -18.3792659584
 H         0.7501624206        3.1417734286      -17.9805202309
 H        -0.3533545377        5.5284173696      -15.5730060486
 H        -0.0969800959        5.9063325426      -17.3578099124
 H         0.8946355516        4.6993419613      -16.4324537730
 H        -9.0381292767        3.8699369091      -17.6961942648
 H        -7.5946805736        4.7996024820      -17.8203315015
 H        -7.5792042380        3.5278245724      -16.7333184276
 H        -8.4355412255        1.3707497012      -17.5416822785
 H        -6.7269985505        1.3943274628      -17.2255584101
 H        -7.2506878960        0.6310929352      -18.8108649335
 H        -9.8188862178        1.5137464878      -24.4507785441
 H       -10.9783240031        0.3435556014      -23.7409989262
 H        -9.8623713172       -0.2078169278      -25.0192664281
 H        -9.0376041251       -2.2813203911      -23.6713629884
 H        -9.5982667305       -1.7922016830      -22.0690078992
 H        -7.8655039562       -1.8774687324      -22.3919865561
 H        -2.4354949252        1.8498336623      -26.8614294180
 H        -4.1482837002        1.5807740426      -27.3168536209
 H        -3.1619411930        0.3195791829      -26.8278264053
 H        -2.3225059253        1.9881362397      -23.3378153223
 H        -1.7176980931        2.6747045287      -24.9433959587
 H        -1.6207684973        0.9119594985      -24.5796817192
 Na       -1.7928679061       -3.7101074525       -4.2488633978
 Na       -5.9184089322        2.1866675116      -22.2634976710
