232

 C        -4.1004912320        4.2705261225      -25.8772520515
 C        -4.2565289259        3.1588197591      -24.7999533882
 O        -4.9389526023        3.4234540205      -23.7657411664
 C        -3.6245888279        1.6696242073      -24.9183128490
 C        -4.7203455222        0.5988587194      -24.2166828888
 O        -4.7504109718        0.5305162549      -23.0084325004
 C        -5.5440131674       -0.3934831413      -25.0543641104
 C        -6.7882768358       -1.0250121275      -24.3365428957
 C        -7.6279895133        0.1410698805      -23.8515937269
 O        -7.4608580961        1.3047449653      -24.0972353183
 C        -8.9521373755       -0.1589138748      -23.0882798036
 C        -8.8255880137        0.5335241003      -21.7338317754
 O        -7.8553787478        0.3277743023      -21.0708923803
 C       -10.0029141461        1.3935987285      -21.2269140685
 C        -9.4616417094        2.2444443441      -20.0231577961
 C        -7.9802192938        2.8859387818      -20.0745305651
 O        -7.6337573654        3.5395144706      -21.0765231106
 C        -7.2407798688        2.9449359312      -18.6943972181
 C        -5.7438807345        3.2244928931      -18.9750000745
 O        -5.1455056547        2.9767721349      -19.9997827341
 C        -4.9454800581        3.4679229000      -17.6169381830
 C        -3.4723607671        3.2755786593      -17.9245602969
 C        -2.6158221108        4.2742162371      -17.0595167382
 O        -3.1095796314        5.0924780056      -16.3700388733
 C        -1.0471521732        3.9935324417      -17.0067829637
 C        -0.8399274802        3.0533448117      -15.7796913195
 O        -0.1859663692        2.0454607577      -15.8566230031
 C        -1.1745475711        3.6506612621      -14.2700905766
 C        -0.9856794023        2.5810406733      -13.2315323901
 C        -2.0173820140        1.3910886088      -13.5248319901
 O        -2.9021425129        1.3284621391      -14.3159114705
 C        -1.8750784589        0.1095836251      -12.4034991502
 C        -2.6022029709        0.6433552119      -11.0399751801
 O        -1.9025157413        1.1873134098      -10.2531522836
 C        -4.0383950032        0.2481081112      -10.8401338238
 C        -4.5158193677        0.5500689251       -9.4188403193
 C        -3.8308191711       -0.3940850897       -8.5153019113
 O        -3.7860172154       -1.5935895247       -8.7654508880
 C        -3.2114379644        0.0768603666       -7.1270874500
 C        -2.4601542423       -1.2816079189       -6.7001543379
 O        -2.8522456142       -1.9461485231       -5.7955907811
 C        -1.1384913562       -1.5395240812       -7.4962588057
 C         0.1165058456       -1.7932250890       -6.6698768755
 C         0.7140504486       -3.0845943765       -7.2028173765
 O         0.4379350161       -3.5506678654       -8.2831392028
 C         1.8590144969       -3.8022103597       -6.3344497500
 C         1.6698748695       -3.5806160159       -4.8257976828
 O         0.5801944175       -3.5332459829       -4.4010525955
 C         2.8899659779       -3.7192174863       -3.8090733243
 C         2.8170346691       -2.4231938903       -2.7570463886
 C         2.4131284767       -1.1292388379       -3.5616599004
 O         2.0113831392       -1.1511094542       -4.6800179727
 C         2.4832117753        0.2997820048       -2.8176605070
 C         1.1235659133        0.4812267651       -1.9846178561
 O         1.1037546877        0.1165908113       -0.8095318027
 C        -0.1561281541        0.9406284076       -2.6137732760
 C        -1.3273609355        0.5378515353       -1.6743976372
 C        -1.5544504872       -0.9810436865       -1.7920050314
 O        -1.5771984214       -1.3452945220       -2.9828855375
 C        -1.7724538372       -1.9690651782       -0.5653490575
 C        -2.8593419341       -3.1268047826       -0.8903459748
 O        -2.6796248339       -3.7589917194       -1.9378122801
 C        -4.0095407081       -3.5049764558       -0.0071270617
 C        -4.0265369214       -5.0605756661        0.1506620011
 C        -2.7681831071       -5.7291161469        0.8000854347
 O        -1.9377519890       -5.0275126464        1.3782188307
 C        -2.5595842487       -7.2850384052        0.6187735451
 C        -2.6749899918       -7.8383617062       -0.8639701260
 O        -3.7406820654       -7.7034161871       -1.4142488571
 C        -1.4372013208       -8.3988864586       -1.5519188259
 C        -1.6859705112       -8.6891399578       -3.0539329745
 C        -1.9165439686       -7.2918057942       -3.8320388236
 O        -1.3471949819       -6.3235181367       -3.3596149065
 C        -2.6658250865       -7.3717289334       -5.1823647587
 C        -3.8785125564       -6.3877763287       -4.9259304303
 O        -3.6382026785       -5.2048465471       -4.9622284511
 C        -5.3907012081       -6.9223886050       -4.5741180125
 C        -6.2407357044       -5.7733519253       -3.9893261782
 C        -7.4494518694       -6.1941736351       -3.2498652831
 O        -7.4938752761       -7.3005486798       -2.7558226470
 C        -8.7732977912       -5.3426667381       -3.2991652318
 C        -8.2992114981       -3.8240666797       -3.0329691749
 O        -7.1646696566       -3.4405101144       -3.0950141563
 C        -9.3749309206       -2.8367165732       -2.6281147201
 C        -9.3604850536       -5.5455794681       -4.7342715718
 C        -9.8110150976       -5.7933714784       -2.2864384812
 C        -1.6886281003       -6.8999004305       -6.3349851940
 C        -3.2086732817       -8.7419992893       -5.4965523794
 C        -1.1705821306       -7.5692249108        1.2583302078
 C        -3.7456906612       -7.8912610726        1.3547845271
 C        -0.4390388797       -2.6450076826       -0.2036355491
 C        -2.1323680100       -1.3338448902        0.7891694502
 C         3.7063601890        0.1886026364       -1.7660239027
 C         2.7575560102        1.4922457154       -3.8025338968
 C         1.7229158983       -5.3122053409       -6.4609946963
 C         3.2324655079       -3.3232041570       -7.0940791775
 C        -2.3067698596        1.2647797214       -7.3097738404
 C        -4.3153295072        0.4799719403       -6.1656445720
 C        -2.4378812445       -1.1675964981      -13.0328110800
 C        -0.4037112497       -0.1923800879      -12.1793208251
 C        -0.5218491473        3.3266973458      -18.2720497812
 C        -0.3255415885        5.3259724183      -16.8771367185
 C        -7.9560904839        3.9898045611      -17.7303003968
 C        -7.2166084725        1.5747834687      -17.8571582718
 C       -10.1252867818        0.3875423526      -23.9368116682
 C        -9.1728224081       -1.6546768912      -22.7931792767
 C        -3.2282841034        1.1924032124      -26.3413574356
 C        -2.3474600761        1.7385695840      -24.0986277906
 H        -5.0712746296        4.4381389872      -26.4262430612
 H        -3.3139554159        4.0248376385      -26.5858626066
 H        -3.9848535109        5.2645663874      -25.4344817269
 H        -4.9748318216       -1.2142471625      -25.3805238649
 H        -5.8673483806       -0.0004101569      -26.0675168630
 H        -6.3845555408       -1.7614840428      -23.5919623991
 H        -7.3477142597       -1.5828072415      -25.1482474320
 H       -10.7878658651        0.7205231399      -20.8400798409
 H       -10.4440232654        2.1375112432      -21.8675921220
 H        -9.6088996960        1.7342510816      -18.9992625255
 H       -10.0463225106        3.1149351085      -19.9002706639
 H        -5.3239341166        2.8649712871      -16.8324840769
 H        -5.1392487049        4.4404228146      -17.1652697736
 H        -3.3984367270        3.3727432422      -19.0450085273
 H        -3.2371796290        2.2443083185      -17.5751062545
 H        -2.1779170897        4.2144822137      -14.1314273286
 H        -0.4733284999        4.4620904565      -14.0384029548
 H        -0.9778850978        2.9147565657      -12.2299691066
 H         0.0156387845        2.1212972949      -13.4330863610
 H        -4.1139690427       -0.8941119722      -10.9586051027
 H        -4.6566852521        0.6666528991      -11.6508569060
 H        -5.5294773567        0.3921305779       -9.4061518431
 H        -4.3512090163        1.6351249792       -9.2284979400
 H        -0.9430677896       -0.8156247231       -8.3210486827
 H        -1.4461613073       -2.4005153939       -8.1821052569
 H        -0.2406266912       -1.9166673055       -5.6069552475
 H         0.7920294165       -1.0052900134       -6.7407751776
 H         3.9264427361       -3.7325421414       -4.2569217021
 H         2.8165096769       -4.6840375434       -3.1926077240
 H         3.8133685966       -2.1608215097       -2.3069062775
 H         2.0972815345       -2.6821826657       -1.9682020947
 H        -0.2672956422        0.3717239911       -3.5523851489
 H        -0.2483552452        2.0585177308       -2.7265090326
 H        -2.2392117010        0.9853450049       -2.0980548029
 H        -1.1080395529        0.9472905409       -0.7048701640
 H        -4.9583177028       -3.2716015319       -0.6379090389
 H        -4.0503257089       -2.9096700486        0.8969859322
 H        -4.1790179008       -5.6234745960       -0.8787509854
 H        -4.9356259352       -5.3937478921        0.6790448509
 H        -1.0656358362       -9.1916646665       -0.9566509917
 H        -0.7105202289       -7.6055336195       -1.5538082944
 H        -2.5990588705       -9.2506906417       -3.2744179909
 H        -0.7654011956       -9.0773466284       -3.5746692811
 H        -5.0836725000       -7.5141505757       -3.6380929334
 H        -5.7939784748       -7.5459591802       -5.3219208156
 H        -6.3381600140       -5.0246222461       -4.7554493229
 H        -5.6137680629       -5.2114546397       -3.2395685533
 H       -10.4179484066       -3.1495797069       -2.9162013701
 H        -9.2459906453       -1.8165448995       -3.0695291917
 H        -9.4204305651       -2.8498752545       -1.4848337262
 H        -8.6568967842       -5.2756511449       -5.5027202098
 H       -10.2712637652       -5.0104514041       -4.9595241249
 H        -9.6259228664       -6.6294993919       -4.9773659929
 H        -9.9275528764       -6.8919817304       -2.2941764741
 H       -10.6921004013       -5.2211478793       -2.5052951187
 H        -9.5311826254       -5.4614987457       -1.2673896321
 H        -2.3447214512       -7.1297811611       -7.2354391818
 H        -0.7433772952       -7.4647298855       -6.4342887323
 H        -1.4104862626       -5.8506501877       -6.1919672620
 H        -3.6780575757       -8.6733318539       -6.4594937843
 H        -4.0095317271       -9.1316370018       -4.7841725208
 H        -2.3949036598       -9.4412561659       -5.6255019383
 H        -1.0962924907       -8.6004170665        1.4402858800
 H        -1.0203292359       -7.1870295401        2.2047829917
 H        -0.3731183664       -7.2131509434        0.6218621850
 H        -3.9592733010       -7.4388796020        2.3230464247
 H        -3.4873514505       -8.9581504797        1.5121626338
 H        -4.6260668750       -7.8502704200        0.7179372233
 H        -0.1364441255       -3.2640007718       -1.1360940721
 H        -0.4193266922       -3.2723152027        0.7382431794
 H         0.3436180746       -1.8781864094       -0.1891451146
 H        -1.2682353877       -0.7659623894        1.1719983437
 H        -2.3646645258       -2.1353687227        1.4821524977
 H        -2.9479636531       -0.5964071873        0.7801524165
 H         3.8106405344       -0.6540137424       -1.1894533003
 H         3.4940617929        1.0095263842       -1.0448121339
 H         4.6107090601        0.3026353419       -2.2875486040
 H         2.1730431787        1.3883011470       -4.7201702187
 H         3.7999135056        1.5541011300       -4.1753926840
 H         2.4070439817        2.3359281795       -3.1992188610
 H         2.5786970977       -5.9067383760       -6.3214801196
 H         1.3512641918       -5.5099279773       -7.4777104386
 H         0.9373942145       -5.8065682370       -5.8953584567
 H         3.6236609249       -2.3259389637       -7.0541382289
 H         3.0905894359       -3.6783166295       -8.1131774950
 H         4.1521866441       -3.9538549285       -6.9243341326
 H        -1.5996233267        1.1454266134       -8.1392617961
 H        -1.8378085533        1.4805739713       -6.3940954600
 H        -2.9168462300        2.1380428010       -7.5522373559
 H        -3.9916817929        0.8606840765       -5.2363510374
 H        -4.8924164225       -0.4688979525       -5.9591397078
 H        -4.9377058085        1.2352124951       -6.6468578670
 H        -3.5740619663       -1.1777856286      -12.9541592437
 H        -2.0771680868       -2.0278603645      -12.5302962824
 H        -2.1650024779       -1.1468601430      -14.1269985058
 H         0.1729116483        0.7420232685      -11.9252660871
 H         0.1021474659       -0.4914757253      -13.1039304119
 H        -0.1029655898       -0.8039727019      -11.3117269453
 H        -0.9057197736        3.9626036649      -19.0746656393
 H        -0.7827306276        2.3209761064      -18.4045329828
 H         0.5508425022        3.4766144580      -18.3677114346
 H        -0.8925253484        5.9682179313      -16.2099046906
 H        -0.2056594835        5.8868663757      -17.8173151623
 H         0.6502020783        5.1696945906      -16.5694503696
 H        -8.8584399536        3.6195098902      -17.3091820980
 H        -8.1588691926        4.9384910687      -18.3526958890
 H        -7.2935340879        4.1634932901      -16.8394052329
 H        -8.3283285501        1.4912035138      -17.4823852520
 H        -6.5006849764        1.4268417949      -17.0716704392
 H        -7.0212650467        0.7593725295      -18.5596735296
 H       -10.1422039340        1.4112621299      -24.1762181886
 H       -11.0745496940        0.2314061195      -23.3880280425
 H       -10.2781172712       -0.2179313697      -24.8132473826
 H        -9.1034602794       -2.3162199427      -23.6247436727
 H       -10.1726290411       -1.7045073658      -22.3054940314
 H        -8.4932330368       -2.1632756673      -22.0399929891
 H        -2.3168372074        1.6783129832      -26.7187875380
 H        -3.9860596410        1.2177305173      -27.1748000493
 H        -2.9859197490        0.1382801116      -26.3316565149
 H        -2.7334511719        1.9762912879      -23.1367755019
 H        -1.5935315320        2.4942958863      -24.5190368241
 H        -1.9357772499        0.7236088227      -24.1499735413
 Na       -1.9103442849       -3.9131824031       -4.2097644197
 Na       -5.9785342869        2.3783444629      -22.1886849676
