232

 C        -4.3351043616        3.7204585821      -26.0677691117
 C        -4.6434642294        2.9503538763      -24.8404847469
 O        -5.3842164231        3.3117841329      -24.0008850293
 C        -3.9107087844        1.4726476186      -24.4451179170
 C        -4.9083377232        0.3199122175      -24.0847189183
 O        -4.7846293659       -0.1310272443      -22.9866884074
 C        -5.8964833791       -0.2045896800      -25.1527128107
 C        -7.0690205768       -0.9057953585      -24.3881115599
 C        -7.9822788184        0.1073908551      -23.6699922221
 O        -7.6927066291        1.3171269564      -23.5701533570
 C        -9.2535364896       -0.4022600386      -22.8522637610
 C        -9.1297855817        0.3058773333      -21.3858532459
 O        -8.2972764413       -0.0491926761      -20.6074358582
 C       -10.0311188545        1.5282497525      -21.1137845157
 C        -9.7907545913        2.1968833937      -19.7869791178
 C        -8.3105507457        2.7405174961      -19.8759641553
 O        -7.9141569817        3.2419987794      -20.8731678031
 C        -7.3815217756        2.7032433070      -18.5241905884
 C        -5.7519734701        2.8772056982      -18.8699496728
 O        -5.3032584312        2.3752416687      -19.8915335665
 C        -4.9093676690        3.7882433600      -17.9026996982
 C        -3.4366611643        3.9503233846      -18.1667924642
 C        -2.5679202370        4.7073300082      -17.0930095817
 O        -3.1219570266        5.5031216804      -16.3974829095
 C        -0.9770921241        4.5261993686      -17.0287006116
 C        -0.6456972345        3.4432016188      -15.9433364223
 O        -0.1723659404        2.3245108979      -16.2082141480
 C        -0.7600024393        3.8116227889      -14.4254296616
 C        -0.8802991556        2.7138216203      -13.3473126668
 C        -2.1610473514        1.7617528796      -13.6314304073
 O        -3.1062935555        2.1559016223      -14.3013774844
 C        -2.2654717914        0.2984143774      -12.9717836169
 C        -2.3652309695        0.5072731016      -11.4066533260
 O        -1.4700114429        0.1114745767      -10.6352891719
 C        -3.6036251041        1.0322087177      -10.7850431009
 C        -3.7088270594        1.1011879271       -9.2211899482
 C        -3.5067839456       -0.2155504362       -8.5266870702
 O        -3.6788906843       -1.2791986371       -9.1361979851
 C        -3.2246813503       -0.2755393088       -6.9374071930
 C        -2.2714867931       -1.4950734240       -6.6778292255
 O        -2.3649370206       -2.0916540061       -5.5996824727
 C        -1.1418253963       -1.8758875555       -7.6728267857
 C         0.2657696613       -2.0097675915       -7.0151411458
 C         0.7689266047       -3.5224438116       -7.0252367020
 O         0.1677658292       -4.3945403345       -7.5344768277
 C         2.2130352845       -3.7333151070       -6.3560276658
 C         2.1403086958       -3.5103404722       -4.7769790799
 O         0.9737549569       -3.4150287798       -4.2849424085
 C         3.3110636984       -3.2774346688       -3.8594084198
 C         3.0642636385       -2.2074569203       -2.7730650086
 C         2.5634268178       -0.7754351441       -3.4577576081
 O         1.9385588588       -0.8549114731       -4.5452175972
 C         2.7088971442        0.5782320777       -2.7274976667
 C         1.3319873798        0.4743427827       -1.7849536763
 O         1.4025906545        0.1191578061       -0.6384938108
 C         0.0015277555        0.6724733121       -2.4654682203
 C        -1.0820354218        0.2332946665       -1.4749641606
 C        -1.3686640160       -1.3451653521       -1.4689350912
 O        -1.0083062179       -1.9282350704       -2.4630547659
 C        -1.9886081856       -2.1690871179       -0.2975306558
 C        -2.7268313841       -3.5125863896       -0.7278683303
 O        -2.8394284705       -3.8612920905       -1.8793055885
 C        -3.5460987735       -4.1628178017        0.3887814479
 C        -3.6680953694       -5.6698032576        0.1630625571
 C        -2.3852351739       -6.3177876079        0.5150235598
 O        -1.5100015449       -5.6836179741        0.9942918759
 C        -2.2279348603       -7.8610527645        0.1439411523
 C        -2.0961639934       -7.8257565814       -1.4023817902
 O        -3.0886980713       -7.6225262136       -2.1028077363
 C        -0.7373633997       -7.9383626100       -2.0723986179
 C        -0.9882837629       -8.0995188866       -3.5546338062
 C        -1.5886092257       -6.8169949195       -4.1297382349
 O        -1.1666236728       -5.7597364185       -3.7171964016
 C        -2.7176502122       -6.9181834099       -5.2338617878
 C        -3.9682993150       -5.8986038487       -4.6570107531
 O        -3.6804090769       -4.7422244737       -4.3634093120
 C        -5.3532009751       -6.5827411910       -4.4632813328
 C        -6.4163642146       -5.5598635811       -4.3603358092
 C        -7.7502215801       -6.1643240236       -3.5088497115
 O        -7.5989244712       -7.0323247733       -2.7403447397
 C        -9.1070345092       -5.3406284922       -3.7593193832
 C        -8.8675772583       -3.9767680096       -2.9479829004
 O        -7.9754376207       -3.2782902823       -3.3591433726
 C        -9.6983647256       -3.4463010154       -1.7896676029
 C        -9.3304483697       -4.8547643650       -5.2190194885
 C       -10.3233135070       -6.1068881786       -3.1098815478
 C        -2.2577632491       -6.1229864744       -6.4848906237
 C        -3.2018993690       -8.3959661615       -5.5557711758
 C        -0.9995864278       -8.4858618970        0.7867539106
 C        -3.4926431198       -8.7191530518        0.5821807788
 C        -0.7569237953       -2.7428001570        0.4430901792
 C        -2.8396927283       -1.2629280221        0.6343870549
 C         3.8882101081        0.6804479204       -1.6858930446
 C         2.7422577751        1.8532619033       -3.6186625628
 C         2.6876314691       -5.1756199889       -6.7639396605
 C         3.1645444338       -2.6776962413       -7.0052494525
 C        -2.5031784421        1.0067274904       -6.4985810051
 C        -4.4899337213       -0.4715657337       -6.1279333004
 C        -3.6163394275       -0.2989817478      -13.4844210051
 C        -1.0059349178       -0.5780878126      -13.4013541810
 C        -0.5387380076        4.0188562691      -18.3904618118
 C        -0.3482205162        5.8897946025      -16.6093533879
 C        -7.9272741484        3.8842678556      -17.6285449952
 C        -7.4603513790        1.2611672521      -17.8366785230
 C       -10.5185215711        0.0813099502      -23.5856166156
 C        -9.2141536838       -1.9433541212      -22.6184411728
 C        -3.1994355056        0.8395362807      -25.6801233526
 C        -2.7554074641        1.6565183521      -23.3695131890
 H        -4.7201049617        3.4169290744      -27.0047883854
 H        -3.2675204705        3.6418426512      -26.2661060720
 H        -4.3983187390        4.8216178920      -25.8775399563
 H        -5.4459160346       -0.9774924306      -25.8291399827
 H        -6.2521835977        0.5665006252      -25.8221431792
 H        -6.6595555367       -1.5922325191      -23.5678886878
 H        -7.5176857531       -1.6896377447      -25.0091734481
 H       -11.1087783130        1.2534901628      -21.1613009943
 H        -9.6934296748        2.2481991538      -21.8587003767
 H        -9.8652814723        1.5396707142      -18.9880610873
 H       -10.5154277704        3.0675190923      -19.6518579897
 H        -5.0333323679        3.2491839076      -16.9348890778
 H        -5.3633003357        4.7829819418      -17.8463421414
 H        -3.1470439293        4.3601466627      -19.1792187783
 H        -2.8730459212        2.9664858503      -18.1723675564
 H        -1.5554331604        4.5472256670      -14.2775218242
 H         0.1409640281        4.4720841917      -14.1319820456
 H        -1.0987001217        3.1474916439      -12.3659139644
 H        -0.0207810568        2.0552499674      -13.2685485205
 H        -4.4466398864        0.4498690843      -11.1371406153
 H        -3.7983084177        2.0914052196      -11.1874746966
 H        -4.6744824024        1.1623913232       -9.0852042442
 H        -3.2407961934        2.0401372114       -8.7943065404
 H        -1.0730918432       -1.1145834859       -8.5085802980
 H        -1.3748163585       -2.8786849545       -8.0724292767
 H         0.2546848520       -1.7320629142       -5.9984047076
 H         0.9600506740       -1.3212799610       -7.5396796082
 H         4.2567644365       -3.2108747618       -4.4769049473
 H         3.3952965228       -4.1686268007       -3.1676310552
 H         3.9227267053       -1.9867530804       -2.1410909833
 H         2.1755709007       -2.5795261765       -2.1971364875
 H         0.1061787045       -0.1024863633       -3.2162169273
 H        -0.1768661540        1.5901104319       -3.0480544615
 H        -1.9827580313        0.7482514896       -1.7229273753
 H        -0.9364969846        0.7245125202       -0.5254275661
 H        -4.5629746933       -3.7608271400        0.3085040637
 H        -3.1135863627       -3.9521888241        1.4534217623
 H        -3.8774144996       -5.9158711400       -0.8970620187
 H        -4.6087518770       -6.0345998365        0.7374084615
 H        -0.1832006895       -8.7791083492       -1.7426422965
 H        -0.1355082280       -7.0942135235       -1.8421827567
 H        -1.6955288137       -8.9341459129       -3.6060138286
 H        -0.0697096554       -8.2012856593       -4.1529286719
 H        -5.2000679993       -7.1670110254       -3.5294123698
 H        -5.5695760425       -7.3456455107       -5.2049631593
 H        -6.7225712983       -5.1273905057       -5.3911949544
 H        -6.0147151761       -4.8059109383       -3.7868144394
 H       -10.8093765238       -3.4314511816       -1.9291433585
 H        -9.2622204637       -2.4500900792       -1.5350010250
 H        -9.5345235043       -4.0332451995       -0.9182222737
 H        -8.5529277213       -4.2771504880       -5.6838926055
 H       -10.2439215807       -4.2473820667       -5.2732426376
 H        -9.6048110001       -5.6106174755       -5.9032974670
 H       -10.6901230373       -7.0051984272       -3.6901893435
 H       -11.1896303150       -5.3801676848       -2.9376375189
 H        -9.9813215059       -6.5221354660       -2.1334440178
 H        -3.0268468485       -6.1133494156       -7.2296196304
 H        -1.4289612383       -6.6495768559       -6.9752407336
 H        -2.0939546354       -5.0712497838       -6.3035308938
 H        -3.9636380040       -8.3843396068       -6.3863255489
 H        -3.5175098610       -8.9668959925       -4.7534955675
 H        -2.4175213205       -8.9858170100       -6.0489058681
 H        -0.6156393720       -9.4050636388        0.2625503815
 H        -1.2596003083       -8.5273317321        1.8825507036
 H        -0.1866588405       -7.8005904822        0.6268380379
 H        -3.4143934960       -8.6529159238        1.6597401748
 H        -3.4494594111       -9.7243113898        0.2248213235
 H        -4.4294448043       -8.2615806407        0.2771478973
 H        -0.1013100984       -3.1809700780       -0.2666081911
 H        -0.9161699281       -3.4888254747        1.2192545376
 H        -0.2246463211       -1.9800289139        0.9868974583
 H        -2.3882811070       -0.3772865477        1.0046907133
 H        -3.0800966632       -1.6620160332        1.6189501118
 H        -3.7825313113       -1.0646734269        0.1848163717
 H         3.8704838991       -0.1566320181       -0.9360554413
 H         3.8334285338        1.5921157996       -1.1832276337
 H         4.8810177069        0.7863057350       -2.1355103739
 H         2.4117784269        1.6529354542       -4.6800953735
 H         3.7536767990        2.3346460130       -3.5718692039
 H         1.9977349005        2.5295453775       -3.1123473882
 H         3.8012854917       -5.2689335061       -6.6434728463
 H         2.6489128172       -5.1644862124       -7.8228082510
 H         2.2787380199       -6.0889583928       -6.4024107523
 H         3.2230093575       -1.7654694730       -6.3671285726
 H         2.8322845182       -2.2413563559       -8.0376687041
 H         4.1717119672       -3.1402513890       -6.9184672371
 H        -1.6752757406        1.2059984090       -7.1544903136
 H        -2.1275140500        0.9548865754       -5.4245181000
 H        -3.2403087566        1.8067421149       -6.5354912481
 H        -4.1479996062       -0.7312784099       -5.0923099452
 H        -5.1631930418       -1.1564535957       -6.5263279794
 H        -5.0019767418        0.4919577142       -6.0769381843
 H        -4.1967639838        0.5603731225      -13.6228151837
 H        -4.0051550278       -1.0823341736      -12.7344222184
 H        -3.4951746111       -0.7471971563      -14.4748595787
 H        -0.1338933510       -0.4902726105      -12.7474210812
 H        -0.6022975641       -0.3744040047      -14.4238619712
 H        -1.4024172684       -1.5887100011      -13.5545628107
 H        -0.9636772621        4.6938526571      -19.1480796746
 H        -0.9957748508        3.0131166979      -18.5885331310
 H         0.5276508680        3.9714151922      -18.5191469828
 H        -0.5903372549        6.3011741215      -15.6456562770
 H        -0.5759752482        6.6196344655      -17.3440373137
 H         0.7680339632        5.7883200484      -16.4920404630
 H        -9.0593306454        3.9573449540      -17.7320242140
 H        -7.5634131922        4.8804271914      -17.9645695736
 H        -7.4785934688        3.9011318170      -16.6175227918
 H        -8.4323681968        1.2075352446      -17.4463873198
 H        -6.8880359385        1.0905191064      -16.9044752521
 H        -7.4438899977        0.3923373070      -18.5103445851
 H       -10.5217062845        1.1223697228      -23.8458125745
 H       -11.4471097194       -0.0771366308      -23.0915356296
 H       -10.5708851181       -0.3684787424      -24.5437308359
 H        -9.3596580803       -2.5740118510      -23.5194280431
 H        -9.9745699278       -2.2412393977      -21.9434805135
 H        -8.3490957767       -2.2838451904      -22.1176443771
 H        -2.3601067221        1.4113645869      -26.0582059737
 H        -3.8865696232        0.7376808307      -26.4911023532
 H        -2.7783008185       -0.1585004307      -25.4392551823
 H        -3.1892623957        1.9294715024      -22.3800672755
 H        -2.0738769642        2.4244288920      -23.7452901384
 H        -2.2975706451        0.6638123173      -23.2643613247
 Na       -1.6621528984       -3.5533771603       -4.0152751223
 Na       -6.1920930511        2.2524833580      -22.0219617730
