232

 C        -4.4066664707        3.5681228635      -25.9786446043
 C        -4.6875335376        2.7502929850      -24.7732749174
 O        -5.4565684754        3.2202816334      -23.9963336055
 C        -3.9522389893        1.3703382141      -24.4756890564
 C        -5.0472186830        0.2685656275      -23.9490986248
 O        -5.1097184304        0.0117993512      -22.8134699452
 C        -6.0260673770       -0.1482783028      -25.0155499197
 C        -7.3097747374       -0.8725847372      -24.4478164909
 C        -8.1721347888        0.0825882391      -23.6141962989
 O        -7.8454729833        1.2626468308      -23.5446271383
 C        -9.2706194255       -0.4428694497      -22.7294586397
 C        -9.2335950136        0.2323734680      -21.2981621415
 O        -8.3980818980       -0.1284409073      -20.4968055832
 C        -9.9771304586        1.5123302414      -21.0791530447
 C        -9.5473921130        2.2620283045      -19.8410003351
 C        -8.0709480076        2.6283837629      -19.7677590395
 O        -7.6329728475        3.0680174485      -20.7795140593
 C        -7.2772507036        2.7721307370      -18.4636811521
 C        -5.7773669826        3.1598925042      -18.7527163233
 O        -5.2697122424        2.8123680101      -19.8117256053
 C        -4.9335978550        3.6485587847      -17.5930359450
 C        -3.4607704723        3.5913250065      -18.0638579867
 C        -2.6913173650        4.5709035110      -17.1503190451
 O        -3.2540266538        5.2578072134      -16.3044876845
 C        -1.1182109410        4.6190804768      -17.1185300364
 C        -0.8367567174        3.4642891787      -16.1049884996
 O        -0.7082654720        2.2472188304      -16.4355489993
 C        -0.8862578613        3.9161037028      -14.6710991753
 C        -0.9172397652        2.6000325437      -13.7293913811
 C        -2.3104437717        1.9331317916      -13.7672757506
 O        -3.2130460885        2.3197963500      -14.4914892235
 C        -2.4193371261        0.5088450885      -13.0703475785
 C        -2.3989434224        0.5372671693      -11.4706615497
 O        -1.4148396803       -0.0219785972      -10.9214862113
 C        -3.5172687670        1.0608917619      -10.5430749520
 C        -3.0192987442        1.1153614387       -9.1445703119
 C        -3.3336596551       -0.3086328011       -8.4901168961
 O        -3.7147212776       -1.2626081565       -9.1546788783
 C        -3.2392124541       -0.4835657356       -6.9646745846
 C        -2.3279078213       -1.7182896932       -6.7490613957
 O        -2.4546365572       -2.3773830509       -5.7222651291
 C        -1.2437287970       -2.0533207563       -7.8441413498
 C         0.1038687754       -2.0236061269       -7.1272622239
 C         0.7427302557       -3.3660080132       -7.0088397918
 O         0.1739035192       -4.3549572180       -7.3236771997
 C         2.1024775277       -3.5377815972       -6.3208969167
 C         2.0811590633       -3.2249454818       -4.8208976064
 O         1.0499580562       -3.3879158796       -4.1792865139
 C         3.4281770159       -3.0003548628       -4.2331125897
 C         3.3594483489       -2.0690039710       -3.0540629338
 C         2.6254960467       -0.6845894904       -3.4953324701
 O         2.3149620028       -0.6366695180       -4.7095512218
 C         2.5740975839        0.4836587466       -2.4959782728
 C         1.3325139928        0.4531251995       -1.4825664437
 O         1.5121706456        0.3091441805       -0.2777472735
 C         0.0561880450        0.7459547583       -2.1394313800
 C        -1.1205563107        0.1377155983       -1.4014316478
 C        -1.2198667954       -1.3544652026       -1.3608037955
 O        -0.5818899272       -2.0471386459       -2.1890955969
 C        -1.8962995558       -2.0776469484       -0.1194804574
 C        -2.6712494225       -3.3896033475       -0.6820999939
 O        -2.8346237628       -3.6591745577       -1.8311233322
 C        -3.4407597847       -4.2800401788        0.3346333900
 C        -3.4089799615       -5.7692974261       -0.0619759369
 C        -2.2203444301       -6.5736668310        0.4402340473
 O        -1.2958214037       -6.1928622189        1.0658898805
 C        -2.2731223206       -8.0552555626       -0.0746812972
 C        -2.1128022547       -8.0282756884       -1.6928178509
 O        -3.0832681731       -7.9287850510       -2.4406759638
 C        -0.7235509772       -8.0846819738       -2.2661460046
 C        -0.6891978468       -7.9802265294       -3.7836615555
 C        -1.4831671443       -6.7124594248       -4.2795341252
 O        -1.0883135943       -5.6405155477       -3.8699914127
 C        -2.7409234243       -6.7694740808       -5.1841456845
 C        -3.8798141361       -5.8805271309       -4.6392499155
 O        -3.7407857633       -4.6698341292       -4.3950079282
 C        -5.3042612415       -6.5557844754       -4.3451069832
 C        -6.3168423681       -5.4384482436       -4.2739202538
 C        -7.6798001101       -6.0441819126       -3.6373319719
 O        -7.6455611319       -7.0131462301       -2.9231845170
 C        -9.0157390403       -5.1352175346       -3.8657406011
 C        -9.0555579739       -3.8468152285       -2.9045896940
 O        -8.5476168978       -2.7978787255       -3.2186706971
 C        -9.8265672816       -3.9358191563       -1.5762022313
 C        -9.1701221061       -4.7503099265       -5.3897068714
 C       -10.0819156726       -6.0794902746       -3.3058317901
 C        -2.3056290779       -5.9778995860       -6.4914120676
 C        -3.1558084937       -8.1398921119       -5.7082804740
 C        -1.0572021368       -8.7850922030        0.7017775032
 C        -3.4586750485       -9.0024184275        0.2380494346
 C        -0.7565501357       -2.3208629655        0.8571777325
 C        -2.8981551730       -1.1011085779        0.4862887545
 C         3.8412539443        0.6160285760       -1.6956927086
 C         2.3476903269        1.7016775326       -3.4678229858
 C         2.5902241382       -4.9538278908       -6.3352827206
 C         3.2352354750       -2.6870628297       -7.1990877573
 C        -2.4357402673        0.6786767545       -6.2869351925
 C        -4.6189022118       -0.6136070210       -6.3402888344
 C        -3.8627912934       -0.1255244746      -13.5296165392
 C        -1.2764380754       -0.2766681032      -13.7239546271
 C        -0.4543778565        4.2678345691      -18.4366700384
 C        -0.6635225099        6.0443417957      -16.6528032931
 C        -7.8756526565        3.7804934960      -17.3942343545
 C        -7.1259781852        1.4646910784      -17.6713359043
 C       -10.5773335274       -0.0154166226      -23.5425162790
 C        -9.2207715933       -1.9414034152      -22.3497424617
 C        -2.9776603084        0.8560941348      -25.6013924244
 C        -3.0625535212        1.6616059853      -23.2002592690
 H        -5.1931342014        3.7333652561      -26.6839914147
 H        -3.6592610421        3.1969483078      -26.6875189673
 H        -3.9678110879        4.5514011589      -25.7248394812
 H        -5.5030404867       -0.8402856665      -25.6884145891
 H        -6.3611340151        0.7946073001      -25.5794087818
 H        -7.0528825915       -1.7681356536      -23.8756152000
 H        -7.8090713934       -1.3505237955      -25.2164358772
 H       -11.0324554899        1.1255718034      -20.8110429289
 H        -9.9791746533        2.0924800379      -21.9448510678
 H        -9.8449202929        1.7524606549      -18.9414644109
 H       -10.2359319309        3.2526224516      -19.8595774488
 H        -5.0743901649        3.2134239889      -16.6148736678
 H        -5.2242530824        4.6942639875      -17.6745026385
 H        -3.2904577993        3.8122152651      -19.0818814692
 H        -2.9489469692        2.6265859014      -17.7726822649
 H        -1.7446522847        4.5824573803      -14.4263032430
 H        -0.0178042231        4.4610726556      -14.3653051589
 H        -0.6288145352        2.7773700681      -12.7154904874
 H        -0.3373012099        1.7533358776      -14.2097073890
 H        -4.4048610548        0.4530523087      -10.4676583030
 H        -3.7760306063        1.9858657837      -10.9836686348
 H        -3.6030763494        1.6890210219       -8.5905202978
 H        -1.9417190704        1.4119782542       -9.0401113112
 H        -1.2983812630       -1.3101663833       -8.6338131508
 H        -1.4500683713       -3.0447985687       -8.1593731751
 H        -0.1027347417       -1.6467297106       -6.0685313433
 H         0.8785206996       -1.3390728691       -7.4771748606
 H         4.1803379346       -2.7503537244       -4.9585277541
 H         3.7119713645       -3.9524435419       -3.8843040978
 H         4.3260264572       -1.8742136228       -2.5857911128
 H         2.6441357181       -2.3887009765       -2.3532788564
 H         0.1050023675        0.2598715281       -3.0869523331
 H         0.0579502105        1.7524705105       -2.3325580687
 H        -2.0451704182        0.5722407169       -1.8869665643
 H        -1.2891657826        0.5098084641       -0.3999604535
 H        -4.3986803403       -3.8864356507        0.3414394646
 H        -3.0475402707       -4.2085075501        1.3698535025
 H        -3.5427183031       -5.8846372101       -1.1360908121
 H        -4.2231020777       -6.2429632735        0.4070161859
 H        -0.0864217342       -8.9212919971       -1.8768001877
 H        -0.0707569078       -7.1977315165       -1.9393845860
 H        -1.1846862773       -8.8710700608       -4.1952739438
 H         0.3432094938       -7.9709392701       -4.1731536914
 H        -5.3402140852       -7.1854970012       -3.4047712756
 H        -5.6015343795       -7.2513860209       -5.0852052130
 H        -6.5735131234       -4.9625003649       -5.2546649365
 H        -5.9578146404       -4.6644632547       -3.6246535781
 H       -10.8464356332       -4.1973022533       -1.6581288631
 H        -9.6326351582       -3.0412707444       -1.0048391916
 H        -9.3784810703       -4.6639960856       -0.9441221240
 H        -8.6492559914       -3.8098093740       -5.7693068722
 H       -10.2056626965       -4.7894311002       -5.7980203359
 H        -8.7226879217       -5.4816437155       -5.9732790935
 H        -9.9666991242       -7.0822994313       -3.6078232561
 H       -11.0197338690       -5.5985709063       -3.4683682074
 H       -10.0075954344       -6.2491279308       -2.2852603102
 H        -3.1203303380       -6.0276370572       -7.1536517086
 H        -1.5197034573       -6.5248378046       -7.0364608739
 H        -2.1364952219       -4.8754783939       -6.4023785896
 H        -3.8063379189       -8.1062811415       -6.6227764290
 H        -3.6086654649       -8.6855796611       -4.8926145817
 H        -2.3492030296       -8.7579178995       -6.0628078180
 H        -0.8090885190       -9.6745591667        0.1402721159
 H        -1.2953769665       -9.0404124110        1.7442758199
 H        -0.1985015086       -8.1645418929        0.6733241542
 H        -3.6304411674       -8.9190635615        1.3221339543
 H        -3.0728818191      -10.0086352385        0.0350524643
 H        -4.3600665809       -8.8751272428       -0.3644765815
 H        -0.0688235168       -3.1286439055        0.7333289163
 H        -1.1731245094       -2.5265354118        1.8595869151
 H        -0.1375967731       -1.3739819994        0.9620884007
 H        -2.4784725616       -0.1502667827        0.9572602796
 H        -3.4471773498       -1.5752848074        1.3257841445
 H        -3.7037372298       -0.7574416604       -0.1827540014
 H         3.6846702507       -0.0380514275       -0.7561797278
 H         4.1131904529        1.6173911360       -1.4007297214
 H         4.8077424303        0.3709816387       -2.1463074119
 H         1.3897601093        1.8221285198       -3.9001683114
 H         2.8738111906        1.3841097845       -4.2935623219
 H         2.7581877180        2.5934902854       -3.0949861054
 H         3.5940774482       -4.8389733133       -5.7824978028
 H         2.8957518466       -5.4816284086       -7.2257008444
 H         1.9397432487       -5.5868987942       -5.7417977137
 H         3.0854973959       -1.5890906885       -7.2171292994
 H         3.1751053033       -3.1474826473       -8.2014494720
 H         4.2176713656       -2.9738212678       -6.9370962289
 H        -1.4891513671        0.6999956483       -6.7949420584
 H        -2.3638108414        0.4564630569       -5.2332624239
 H        -2.8475950068        1.7092450516       -6.4417942911
 H        -4.5150219620       -0.3203014289       -5.2801149912
 H        -4.9696028969       -1.6091062078       -6.4796580744
 H        -5.3866155184        0.0312739841       -6.8044768413
 H        -4.6603423004        0.4471394153      -13.0682780368
 H        -3.8633621182       -1.1957939174      -13.1961415531
 H        -3.9709075324        0.1854042659      -14.5487145568
 H        -0.2806882078        0.1254388454      -13.6860221471
 H        -1.5018377829       -0.4100439267      -14.7789678970
 H        -1.4248873828       -1.2632630114      -13.4223177459
 H        -0.4844866166        5.0448845732      -19.1603527425
 H        -0.8503724029        3.3096650512      -18.7793075816
 H         0.6521398758        4.0976564590      -18.3505307856
 H        -1.2618366364        6.3826958622      -15.7954027322
 H        -0.8386680662        6.7687117376      -17.4106347283
 H         0.3690582511        6.2190649412      -16.2351762146
 H        -8.9186005813        3.9783384813      -17.6265677785
 H        -7.4656608353        4.7198094980      -17.4441296059
 H        -7.7273484437        3.4757311109      -16.3920778778
 H        -8.0013197944        1.1579065488      -17.2486312751
 H        -6.4380533062        1.4499947835      -16.7668199101
 H        -6.7971954974        0.6602320496      -18.3333595670
 H       -10.4959432640        1.1251027928      -23.6032552476
 H       -11.5695764357       -0.1260655151      -23.0951212796
 H       -10.7336418875       -0.4662341974      -24.5801640496
 H        -9.0034286526       -2.6045139334      -23.2236883550
 H       -10.0687636382       -2.3410604501      -21.7951377139
 H        -8.3750806665       -2.1375177096      -21.6781601972
 H        -2.2225362042        1.5967930930      -25.7831358072
 H        -3.5976074078        0.6861938944      -26.5000385468
 H        -2.4865085790       -0.1512578959      -25.4210392265
 H        -3.6609367354        2.1308943712      -22.3645126513
 H        -2.2800543370        2.2773626305      -23.5033538197
 H        -2.6649689612        0.7071207708      -22.8539728369
 Na       -1.4926807313       -3.4958235404       -3.9400271833
 Na       -5.9897881321        1.8899619488      -21.9698772823
