232

 C        -4.4683014941        3.3961671338      -25.9905915212
 C        -4.6905790759        2.6250099033      -24.6714802234
 O        -5.4675153023        3.0805835085      -23.8101760886
 C        -3.9243426171        1.3499200869      -24.3592885373
 C        -5.0700284822        0.3878102117      -24.0537775032
 O        -5.4211132660        0.1500558214      -22.8748876219
 C        -6.0614980762       -0.2241699375      -25.0976817980
 C        -7.2486820985       -0.8444070098      -24.4274887381
 C        -8.1238502686        0.1010841936      -23.5379946956
 O        -7.8884788882        1.2724817315      -23.4524879148
 C        -9.3177752396       -0.4752225954      -22.6157483795
 C        -9.2169744372        0.2833974979      -21.2517931544
 O        -8.4318954301       -0.1124155710      -20.4211970320
 C        -9.9822611299        1.6334177391      -20.9530574258
 C        -9.5541349150        2.2457866011      -19.5891604112
 C        -8.1388814635        2.7125888235      -19.6779493157
 O        -7.7715257515        3.0250028427      -20.8181031221
 C        -7.2171900197        2.7209380991      -18.4792152771
 C        -5.6992125210        2.9790537014      -18.7963129710
 O        -5.1653365576        2.9647202274      -19.8762856306
 C        -4.8976449971        3.5990379570      -17.6356051478
 C        -3.3892509386        3.4805284121      -17.7985514771
 C        -2.6813911502        4.6819093145      -17.0568277098
 O        -3.3621305590        5.3271834547      -16.2734405641
 C        -1.1618004121        4.7504183972      -17.1089761521
 C        -0.9084841407        3.5358829419      -16.1072546935
 O        -0.9603753013        2.4135763489      -16.5218636275
 C        -0.9333531373        3.8776096888      -14.6393630141
 C        -0.9758110491        2.6164116083      -13.7472060871
 C        -2.4120773984        1.9074696444      -13.8345536227
 O        -3.3387081233        2.5009534429      -14.3290936502
 C        -2.5600769058        0.4329003775      -13.2288784953
 C        -2.2312832829        0.5884339497      -11.7409820661
 O        -1.2302741613        0.1255197164      -11.3237503691
 C        -3.2142380778        1.2897332311      -10.8197564240
 C        -2.9164596913        1.1639358534       -9.2702735081
 C        -3.4167797934       -0.2551447961       -8.6768903275
 O        -4.1054413722       -1.0193500674       -9.2821724777
 C        -3.2767939697       -0.4985628080       -7.0996841068
 C        -2.3882893740       -1.7665750976       -6.7155203295
 O        -2.5900374219       -2.4539760079       -5.7329912740
 C        -1.2436349744       -2.1010571536       -7.7459167962
 C         0.2110558214       -2.0895686395       -7.1850367396
 C         0.7980781681       -3.4653590643       -6.8999873316
 O         0.2281675822       -4.4568951579       -7.3466867329
 C         2.2481852264       -3.6432869905       -6.3312705922
 C         2.2312342049       -3.2428169597       -4.8543690873
 O         1.1395587983       -3.0609530061       -4.3504569895
 C         3.5015613489       -2.9827556102       -3.9448531343
 C         3.3362597371       -1.8366526070       -2.9670126501
 C         2.7939562892       -0.5640955851       -3.5042628868
 O         2.2575799699       -0.5393534954       -4.5660785101
 C         2.6418952827        0.6805152383       -2.5253597256
 C         1.4003304412        0.5656878501       -1.6370710721
 O         1.4975611057        0.1944675042       -0.4896005542
 C        -0.0764264285        0.8173488561       -2.0830720068
 C        -1.1046665859        0.2129278140       -1.1434372162
 C        -1.1150136386       -1.3385112652       -1.1936487561
 O        -0.4583995871       -1.9359486217       -2.0072064736
 C        -1.9880957828       -2.0810783439       -0.0759362504
 C        -2.5226480261       -3.4425055747       -0.5387509701
 O        -2.6698486598       -3.6707355629       -1.7443550404
 C        -3.0759742290       -4.4240613818        0.4524253846
 C        -3.3500484746       -5.7683074120       -0.1449773442
 C        -2.2234367302       -6.7664935330        0.2657466232
 O        -1.3593434365       -6.3440339613        1.0439440373
 C        -2.2083721860       -8.2864133531       -0.2236371879
 C        -1.9805119469       -8.2716467799       -1.7728018758
 O        -2.9234085445       -8.0840923624       -2.4914776753
 C        -0.5663987784       -8.2132969077       -2.5032254373
 C        -0.7719911966       -8.1521472422       -4.0603401851
 C        -1.3860297538       -6.7657738099       -4.3057838382
 O        -0.7719660075       -5.7918349223       -3.8512433002
 C        -2.6812001583       -6.6656105252       -5.2898263340
 C        -3.8085329108       -5.7096306307       -4.6009350265
 O        -3.5035452976       -4.5907788795       -4.2682037550
 C        -5.2708609818       -6.2837650332       -4.3801765917
 C        -6.3220417850       -5.2342145377       -4.2169004961
 C        -7.5830972136       -5.8987450557       -3.5623632030
 O        -7.5509921851       -6.9769151118       -2.9199934745
 C        -9.0537058960       -5.1817939914       -3.8493806275
 C        -9.2006581629       -3.9193027513       -2.8787641124
 O        -8.8375782092       -2.8254198577       -3.3065030765
 C        -9.6708542201       -4.1113765051       -1.4334972965
 C        -9.0685350134       -4.6029574424       -5.2730953708
 C       -10.2393222604       -6.1607217449       -3.7615706164
 C        -2.2764445963       -5.9288450908       -6.5446265845
 C        -3.2100658924       -8.1046992015       -5.6136883513
 C        -0.9966548261       -9.0761247990        0.3299700219
 C        -3.6519575860       -8.7760978060        0.0854040811
 C        -1.0202245963       -2.4020860208        1.0963730970
 C        -3.1239875199       -1.1621364756        0.4137975297
 C         3.9613884682        0.6585404703       -1.6129429517
 C         2.5480747467        2.1156581608       -3.2514363103
 C         2.6270792735       -5.2073613889       -6.4353218006
 C         3.2191151922       -2.8325344784       -7.1726348572
 C        -2.5304832859        0.6269051297       -6.2148259295
 C        -4.7538535856       -0.6294655451       -6.4352653920
 C        -4.0238010198       -0.0251719665      -13.5527659109
 C        -1.6211394530       -0.6539798292      -13.8033818269
 C        -0.6320602660        4.3652182670      -18.5325457698
 C        -0.6005851655        6.1132752469      -16.6731664820
 C        -7.8333281532        3.7557945370      -17.5305304911
 C        -7.1692220735        1.3147990273      -17.8630200000
 C       -10.6315187708       -0.2314739374      -23.2950736124
 C        -9.2881899759       -2.0704341134      -22.4880904772
 C        -3.1278875802        0.7300275042      -25.4823634749
 C        -2.9955402693        1.5481506717      -23.1024831220
 H        -5.4623899592        3.7118565034      -26.4382473728
 H        -3.9100142969        3.0519412620      -26.8949515041
 H        -4.0444503725        4.3625995333      -25.8372201314
 H        -5.4885098204       -0.9163966893      -25.7350589683
 H        -6.3835560469        0.6617151432      -25.6018176342
 H        -6.8377221208       -1.6475310401      -23.8094426399
 H        -8.0177513275       -1.4902181116      -25.0136283541
 H       -11.0408541427        1.4955015509      -21.0806506616
 H        -9.5730186924        2.3024515370      -21.8240125619
 H        -9.7434086337        1.5688989945      -18.7204110902
 H       -10.0696243634        3.0853326555      -19.3930912916
 H        -5.1221016842        2.9711685810      -16.7508958977
 H        -5.2442431565        4.6442602247      -17.5344026469
 H        -3.1883963136        3.7626702308      -18.9078727521
 H        -2.9923147155        2.4929833979      -17.5610621288
 H        -1.8778776157        4.4075314742      -14.4461296243
 H        -0.1228135664        4.5181320985      -14.1926128850
 H        -0.7972072748        2.8620049357      -12.6715696934
 H        -0.2669053746        1.9393077299      -14.1319361809
 H        -4.1825127808        0.7533453615      -10.9631199481
 H        -3.4029009826        2.3675372588      -11.0969708876
 H        -3.5757802457        1.9630389047       -8.5652596891
 H        -1.9119941757        1.3412820649       -9.0323354011
 H        -1.3592647882       -1.3529565836       -8.5153435755
 H        -1.5191568323       -3.1142451156       -8.1050220407
 H         0.2201712476       -1.5007285400       -6.2987937209
 H         0.9610166265       -1.5617016237       -7.7904911775
 H         4.4185528693       -2.9114252607       -4.5702520615
 H         3.7818025373       -3.8732056165       -3.2841049732
 H         4.2822577358       -1.6049670392       -2.4896007842
 H         2.6164035842       -2.0560460227       -2.1347452718
 H        -0.3026436134        0.4955295228       -3.1486394169
 H        -0.1993693348        1.9416609529       -2.1022842739
 H        -2.0301591050        0.6662893185       -1.4134942390
 H        -0.9360546728        0.6433857110       -0.1449921870
 H        -4.0356928498       -3.8327298360        0.8143388903
 H        -2.4508344531       -4.4906079192        1.3283507872
 H        -3.5332522492       -5.5987123083       -1.2393944898
 H        -4.2821113915       -6.2041135081        0.3590283123
 H         0.2179559664       -8.8918684044       -2.2619537001
 H        -0.0617910777       -7.3240150887       -2.2639427192
 H        -1.3881663961       -8.9918855784       -4.4215228730
 H         0.1730204692       -8.3560427818       -4.6150048089
 H        -5.1390480764       -6.7490970402       -3.4214778833
 H        -5.6431427163       -7.1265050311       -5.0212707861
 H        -6.5895446591       -4.7137076297       -5.0920931405
 H        -5.9794639700       -4.4982414013       -3.4186245812
 H       -10.7344875108       -4.3125345518       -1.4812362439
 H        -9.4973845316       -3.2477660129       -0.8391110671
 H        -9.2412653561       -4.9347341037       -0.8163899332
 H        -8.3053015471       -3.8738590139       -5.3952156377
 H        -9.9588237238       -4.0845352477       -5.5072632126
 H        -8.8403108268       -5.3101701925       -6.1274906673
 H       -10.2538769349       -6.8325719751       -4.6407177652
 H       -11.1959246262       -5.6946745568       -3.5215131191
 H        -9.9937641586       -6.9605140163       -3.0186743094
 H        -3.0889524459       -5.7091385500       -7.2645061251
 H        -1.4564596095       -6.3267559739       -7.0809353316
 H        -1.9381587826       -4.9780555653       -6.2000913742
 H        -4.0943992959       -8.1308551690       -6.1999785861
 H        -3.3937459687       -8.6850776170       -4.6656876658
 H        -2.4958955529       -8.6914875133       -6.2148164311
 H        -1.2386425489      -10.1573263516        0.1914606441
 H        -0.8239522089       -8.8938889237        1.4060582977
 H        -0.0133765314       -8.8138342574       -0.2127641222
 H        -4.1591670900       -8.4086332404        0.9635510456
 H        -3.6901333281       -9.8662564159        0.0411067133
 H        -4.1125524571       -8.4485135424       -0.8438856079
 H        -0.3034669759       -3.1701283552        0.8223273464
 H        -1.4856171003       -2.9077700640        1.8954507467
 H        -0.4114329939       -1.5848913467        1.3313044960
 H        -2.7153722739       -0.3875710255        1.0239154871
 H        -3.9761227425       -1.6446596605        0.8980274188
 H        -3.5789884151       -0.5362201505       -0.3568358601
 H         4.2460514747       -0.2131668639       -1.1185806888
 H         4.0613390958        1.4301862509       -0.8104415942
 H         4.7765032445        0.9876323062       -2.2662409335
 H         1.7660096531        2.1183972314       -4.0237943386
 H         3.4144734889        2.5595279049       -3.7928231003
 H         2.2529572525        2.7660688169       -2.4119247964
 H         3.5548667389       -5.6461256523       -6.2850958439
 H         2.3034313876       -5.4220887456       -7.4911795851
 H         1.8336165129       -5.7359077115       -5.8620799535
 H         3.2369897004       -1.8103085695       -6.7099587237
 H         3.0033153254       -2.8495191557       -8.2436499072
 H         4.2520807374       -3.3343212790       -7.1889010506
 H        -1.4277700593        0.6308690008       -6.4099685604
 H        -2.8140248644        0.4169614512       -5.1936302744
 H        -2.8076306120        1.6293411375       -6.4862479349
 H        -4.7052946491       -1.1250189162       -5.4834156197
 H        -5.3347767180       -1.2398545095       -7.1874191750
 H        -5.2634466248        0.3152353076       -6.3015925797
 H        -4.7991641566        0.5244947821      -12.9757392905
 H        -4.0490794304       -0.9581354437      -13.1337415551
 H        -4.2352568690        0.1998364416      -14.6084296469
 H        -0.6627729396       -0.2614080938      -13.3886233653
 H        -1.4907217816       -0.7693035774      -14.8765442836
 H        -1.8319700390       -1.6465413409      -13.3256809882
 H        -1.1101533766        4.9226682030      -19.3748316153
 H        -0.6317962685        3.2892112878      -18.6230107233
 H         0.3857757773        4.6752110239      -18.7090552831
 H        -1.2263859090        6.6710481180      -15.9502695547
 H        -0.3352033347        6.8494005557      -17.4909380871
 H         0.3157091565        5.9967545749      -16.1339086903
 H        -8.6786816776        3.4612127214      -16.8746944736
 H        -8.2098338881        4.6360572284      -18.1625222212
 H        -7.0461342183        4.1854392834      -16.8208870655
 H        -8.1075947898        0.6754640113      -17.8278827191
 H        -6.8767262810        1.3114814804      -16.8599626383
 H        -6.4049466917        0.7235337663      -18.3096078074
 H       -10.9210829316        0.7576618594      -23.5001685755
 H       -11.4577029673       -0.6109998028      -22.6979631219
 H       -10.7202776074       -0.8454399506      -24.1587526363
 H        -9.5403273386       -2.5202493002      -23.3948857038
 H       -10.0689366399       -2.3085481387      -21.7860846639
 H        -8.3954311484       -2.6108382115      -22.1654894432
 H        -2.4183175900        1.5066765653      -25.8078471561
 H        -3.6935064641        0.2402654187      -26.2751908286
 H        -2.5749791224       -0.0496173652      -25.0655474707
 H        -3.5035312134        1.9964491740      -22.2659271165
 H        -2.1482934849        2.1955281908      -23.4829315081
 H        -2.5247789994        0.5832060527      -22.8133672071
 Na       -1.3214545459       -3.5145325337       -3.7703034872
 Na       -6.0022603388        1.9133777888      -21.6563363355
