232

 C        -4.6455557191        3.3046171182      -25.8602963231
 C        -4.7382001110        2.5863976493      -24.6041967844
 O        -5.2881906494        3.0495840580      -23.6262154430
 C        -4.0308868863        1.2402056060      -24.2710322654
 C        -5.1951764578        0.2021329987      -23.8133845747
 O        -5.2967130968       -0.0488384592      -22.6616756268
 C        -6.2205215233       -0.2722893643      -24.9237607090
 C        -7.4812637495       -0.8790381958      -24.4189842741
 C        -8.2123344315        0.0681379931      -23.4649642378
 O        -7.9040445849        1.2778034065      -23.4245374176
 C        -9.3639265402       -0.5223952668      -22.5443014419
 C        -9.1896217481        0.2040444126      -21.2147590166
 O        -8.3623191641       -0.2080759679      -20.4543485883
 C       -10.1265363402        1.3885526737      -20.8761252463
 C        -9.6198058539        2.1512616140      -19.7214201827
 C        -8.2034560458        2.6945191100      -19.8676204287
 O        -7.8092429983        3.2353010764      -20.8574802789
 C        -7.2784641592        2.5916423937      -18.5168622909
 C        -5.7523741943        3.0135710087      -18.7445082777
 O        -5.1229678455        2.8575638204      -19.8110120956
 C        -4.9448305933        3.5405740286      -17.5013171860
 C        -3.4614419827        3.7968795592      -17.8151501776
 C        -2.7638439099        4.8096602594      -16.9707758890
 O        -3.3434447030        5.6817267597      -16.4198081457
 C        -1.2095897070        4.7971096455      -17.0906325336
 C        -0.8851948641        3.5646397624      -16.0554952982
 O        -0.7943751565        2.4544248602      -16.5076944818
 C        -0.7978140024        3.7297494457      -14.5288486813
 C        -1.0122444333        2.4698805473      -13.6843823147
 C        -2.4509814567        1.8923084071      -13.8187285332
 O        -3.4295223810        2.5200711055      -14.1694814258
 C        -2.6588092342        0.3826546072      -13.3003680962
 C        -2.1542398068        0.5300522231      -11.7987651886
 O        -0.9797479985        0.3629160698      -11.4539317853
 C        -3.0597696705        1.3145891576      -10.8264161827
 C        -2.7457128257        1.1168178112       -9.3310015439
 C        -3.5596907401       -0.1426622669       -8.7479756397
 O        -4.3006019851       -0.8586369301       -9.4264717882
 C        -3.3348150417       -0.4456299183       -7.1485771344
 C        -2.2554094387       -1.6753578988       -6.7847844262
 O        -2.4229209721       -2.2370625236       -5.7398314568
 C        -1.1096587931       -2.1046936140       -7.7700575598
 C         0.1906890722       -2.1785220267       -6.9990613485
 C         0.8579110174       -3.6635287219       -7.0385251013
 O         0.1604939723       -4.5550201266       -7.4499887243
 C         2.1949430810       -3.7285662352       -6.3008786192
 C         2.0688138504       -3.1454996803       -4.8073198595
 O         0.9972362193       -2.9364860559       -4.2299696080
 C         3.3295708948       -2.7773841055       -4.1249817727
 C         3.1688843195       -1.7622112647       -3.0188255104
 C         2.7063282263       -0.3979205206       -3.4180159062
 O         2.2727481044       -0.1786434589       -4.5330570327
 C         2.7529127329        0.8705871709       -2.4311894816
 C         1.5148382462        0.4693866507       -1.5450927114
 O         1.6905319329       -0.1262789631       -0.5238879140
 C         0.1047870846        0.7374559867       -2.0813962427
 C        -1.0150588142        0.2467562581       -1.0701257214
 C        -1.1584978509       -1.2798463321       -1.0683153919
 O        -0.5170518258       -1.8677829260       -1.9288949432
 C        -2.0276967738       -2.0996030380       -0.0138480748
 C        -2.3688224125       -3.4522309056       -0.5582188071
 O        -2.3985323651       -3.6787749937       -1.7387948981
 C        -2.9240089709       -4.4974301963        0.4523388276
 C        -3.1488267816       -5.9095116771       -0.1733074509
 C        -2.0143366475       -6.8682868394        0.1826840920
 O        -1.1130293863       -6.6674776598        0.9582734223
 C        -2.1931132810       -8.3283084088       -0.3734203494
 C        -2.0185501594       -8.3023212214       -1.9718444131
 O        -3.0051735202       -8.0204365363       -2.6864083912
 C        -0.7251416565       -8.5456143382       -2.5891437958
 C        -0.7502887688       -8.1873259439       -4.1250463579
 C        -1.3562841779       -6.7999275592       -4.4144173336
 O        -0.7862632017       -5.8019871384       -4.0388192300
 C        -2.6438050838       -6.6005457457       -5.2844489257
 C        -3.7219579976       -5.6668469484       -4.4522252135
 O        -3.3638093359       -4.5972468385       -4.0427138454
 C        -5.0884692037       -6.2021305533       -4.3256572659
 C        -6.1054212225       -5.0922526912       -3.9874813981
 C        -7.6187402906       -5.6995923768       -3.5818436373
 O        -7.6508728642       -6.6874601287       -2.9573838103
 C        -8.9524535900       -5.1130769831       -3.9839761691
 C        -9.1434957496       -4.0247994443       -2.9176435858
 O        -9.0244471962       -2.8715505747       -3.2325857440
 C        -9.4970631834       -4.5349294820       -1.5240715369
 C        -9.0638960007       -4.4651712831       -5.3965336892
 C       -10.0799992242       -6.2628132727       -3.8781136367
 C        -2.1792154846       -5.9008454230       -6.6055441575
 C        -3.4630365835       -8.0069987707       -5.7068895019
 C        -1.1793524697       -9.2274327815        0.4368030115
 C        -3.5952585368       -8.9265722301       -0.1356503701
 C        -1.1206192951       -2.1884539732        1.2773250595
 C        -3.3387030339       -1.3534591824        0.4967001153
 C         3.9344081127        1.0001433030       -1.4958168467
 C         2.6882769069        2.1034861895       -3.2779576363
 C         2.6718723413       -5.1931552525       -6.3581803680
 C         3.2953164971       -2.8455663615       -6.9781835408
 C        -2.6211771990        0.7568798917       -6.4996363976
 C        -4.7750657740       -0.8223374460       -6.5922152896
 C        -4.2371627373        0.0439941425      -13.4240824242
 C        -1.8763272955       -0.6712804906      -14.1123657799
 C        -0.7100515939        4.4382536798      -18.4972712403
 C        -0.6141810405        6.0738327427      -16.5474802873
 C        -8.0484505152        3.5707264710      -17.5802141306
 C        -7.1542330615        1.1960538408      -17.8795925801
 C       -10.6158441731       -0.1203440614      -23.2365191855
 C        -9.0868168182       -1.9417688174      -22.2855495575
 C        -3.3314880095        0.7128548652      -25.4856599706
 C        -3.0192288410        1.3821792981      -23.1212603966
 H        -5.3749726359        4.0254981671      -26.1743129577
 H        -4.4658326800        2.6021779527      -26.6403747232
 H        -3.7217553316        3.9569845844      -25.9448665498
 H        -5.6669540183       -0.9640380603      -25.5432584487
 H        -6.5338007173        0.6421802396      -25.4695792325
 H        -7.3692829920       -1.9246851085      -24.0391759602
 H        -8.1448773909       -1.0370962736      -25.2058354763
 H       -11.1948657631        1.0294174801      -20.7243352530
 H       -10.1326044963        1.9544372124      -21.7552531598
 H        -9.6973006168        1.5401178962      -18.8461686466
 H       -10.3304709814        3.1033063373      -19.5779875340
 H        -5.0441226046        2.8263169616      -16.6910847686
 H        -5.4091413236        4.5174746376      -17.2972088390
 H        -3.3877678391        3.9314563138      -18.8305857256
 H        -2.8658541529        2.9303547388      -17.5174255711
 H        -1.5397633242        4.4032280600      -14.1299831187
 H         0.1804513034        4.0503658281      -14.2470595030
 H        -1.0119831321        2.6449712670      -12.6202417174
 H        -0.2219983086        1.7228364754      -14.0278643144
 H        -4.0419172354        0.8514480646      -10.9553994078
 H        -3.1529824257        2.3926597620      -10.9187885648
 H        -3.0224317497        1.9150237332       -8.8216926523
 H        -1.6074838760        0.9871643663       -9.0867035840
 H        -1.0537334853       -1.3556895953       -8.6075698423
 H        -1.3023101152       -3.1382845835       -8.1277653916
 H         0.1985542635       -1.8706394194       -5.9201798141
 H         0.8618864371       -1.4050204807       -7.3926216274
 H         4.0674188935       -2.6002399607       -4.8858078453
 H         3.7431931301       -3.6307847363       -3.6393307867
 H         4.1513910459       -1.5230967108       -2.5422568152
 H         2.5348403504       -2.1534557332       -2.2209638703
 H         0.1248753104        0.1836912058       -3.0070319073
 H        -0.0057095644        1.8001825900       -2.4029790208
 H        -2.0062816962        0.6496824804       -1.4610488341
 H        -0.8576267384        0.7847146969       -0.1041295350
 H        -3.8152310028       -4.1041417242        0.7469802108
 H        -2.3323202906       -4.5002132606        1.3913319004
 H        -3.2211698182       -5.8391102721       -1.2436868576
 H        -4.0656249004       -6.2805688885        0.2157100595
 H        -0.3033264569       -9.5696827426       -2.5057641603
 H         0.0803193447       -7.9745986692       -2.0343361927
 H        -1.0464890482       -9.0405911995       -4.7382150103
 H         0.2652399291       -8.1552431435       -4.4895969222
 H        -5.0241689531       -6.9300544652       -3.4656849340
 H        -5.3734761849       -6.7758358091       -5.1901462122
 H        -6.2062502630       -4.2597540894       -4.7907368946
 H        -5.7085158669       -4.6571353892       -3.1117546349
 H       -10.5993758857       -4.8120618442       -1.3894925423
 H        -9.1933155783       -3.8474474369       -0.6718655678
 H        -8.9393673099       -5.4492047494       -1.3353991362
 H        -8.3062382251       -3.7123854895       -5.6560986367
 H       -10.0383821777       -3.9006569078       -5.5133534525
 H        -8.9183305665       -5.2111943333       -6.1529737378
 H       -10.1211310467       -6.9156399154       -4.7676231301
 H       -11.0829605812       -5.8096261786       -3.7070791500
 H        -9.8661749995       -6.9462195272       -3.0480251705
 H        -2.9893414622       -5.6800756951       -7.2972812207
 H        -1.3654615447       -6.4857314769       -7.1447407032
 H        -1.6011403331       -4.9576361371       -6.4006011574
 H        -4.2318675451       -7.7055466789       -6.4928954957
 H        -4.0031178991       -8.5639165560       -5.0193650003
 H        -2.7581808564       -8.7343589520       -6.1155891533
 H        -1.1803097879      -10.2422625895        0.0849816971
 H        -1.4246771943       -9.3052349151        1.4876031488
 H        -0.2676514177       -8.7767565826        0.3559746909
 H        -3.7464581854       -9.0182133901        0.9434882710
 H        -3.5957878561       -9.9147504318       -0.5562674316
 H        -4.4066618659       -8.3362448576       -0.5545970179
 H        -0.2448238798       -2.8342870958        1.1556634282
 H        -1.5915657215       -2.6902140873        2.1448186205
 H        -0.6507167570       -1.1925479025        1.3706814682
 H        -3.1321787561       -0.2925378922        0.5555574909
 H        -3.7523912389       -1.8535481024        1.3907032464
 H        -4.1266097671       -1.3300646591       -0.2384734480
 H         4.0019154055        0.1638761778       -0.7388202754
 H         3.7264812160        1.7684211466       -0.8123073283
 H         4.9731572580        1.1042634497       -1.8073262706
 H         2.4017080941        1.8117819038       -4.3268112062
 H         3.7136849056        2.4974299956       -3.4364983918
 H         2.0928816286        2.9605420971       -2.8817644451
 H         3.6790366063       -5.1464945086       -5.8433525389
 H         2.8192521993       -5.5158558783       -7.3428373002
 H         2.1288242152       -5.9129727829       -5.8181081904
 H         2.9398527926       -1.8631736651       -6.8748290195
 H         3.2402802261       -3.2452706861       -8.0128596079
 H         4.3019058370       -2.9109488226       -6.7238561069
 H        -1.8309135964        1.0101970976       -7.1215114789
 H        -2.2205154348        0.5170001615       -5.4756056866
 H        -3.2413702522        1.6440384476       -6.4519140499
 H        -4.7421947037       -1.6976658397       -5.8910114396
 H        -5.4039930074       -1.0664371657       -7.3887587727
 H        -5.1581041891        0.0340512291       -6.0233874424
 H        -4.7230538590        0.9928463129      -13.3026252748
 H        -4.6542441019       -0.4402903682      -12.4672807731
 H        -4.4730312935       -0.3328852364      -14.4019215381
 H        -0.8051896577       -0.5401213788      -13.9723652357
 H        -2.0847283328       -0.4773012749      -15.1972912557
 H        -2.1044731608       -1.7010276809      -13.7964713388
 H        -1.1708343702        4.9556167790      -19.2891942378
 H        -0.7740719487        3.3542904512      -18.6143573358
 H         0.3425574445        4.6708756409      -18.6121001621
 H        -0.9675290002        6.3071751978      -15.5819446632
 H        -0.7524671204        6.9340764487      -17.0965095374
 H         0.4837713167        6.0033557751      -16.5183517139
 H        -8.7649759770        3.0309794593      -16.9914262134
 H        -8.5586255003        4.3685776871      -18.0974066351
 H        -7.4351474302        3.9194780155      -16.8009283698
 H        -8.0085449756        0.7410508680      -17.4253915811
 H        -6.3946179434        1.2539211787      -17.0386649914
 H        -6.6274888990        0.4118036642      -18.4731360198
 H       -10.7069054255        0.9336833863      -23.4866663761
 H       -11.4923831448       -0.3933458854      -22.6086132841
 H       -10.7839039300       -0.6816235601      -24.1298883377
 H        -9.0279382776       -2.5629501716      -23.2434563888
 H        -9.9053189915       -2.3769035600      -21.6947233807
 H        -8.1546134429       -2.1291316707      -21.7770116458
 H        -2.4087207372        1.2640331314      -25.6440588112
 H        -3.9770587469        0.7489217542      -26.3490883459
 H        -3.1829520615       -0.4022866804      -25.3060175514
 H        -3.4628117807        1.8515538447      -22.2253921677
 H        -2.1038008334        1.8864266840      -23.4554850927
 H        -2.7159664403        0.3606023059      -22.8846489025
 Na       -1.2283630849       -3.4521239583       -3.8622381341
 Na       -6.1687425973        2.1589736112      -21.8396152497
