232

 C        -4.7164947255        3.3157370463      -25.8113857016
 C        -4.6674180225        2.6790078264      -24.4704681334
 O        -5.3112256371        3.2653561107      -23.6135889865
 C        -4.0751687904        1.1490187078      -24.2054373846
 C        -5.2252208273        0.2272224272      -23.8252419737
 O        -5.2581934340       -0.2327070340      -22.6404327125
 C        -6.1269485914       -0.2495935390      -24.9585253983
 C        -7.4792986910       -0.8556613134      -24.4432514230
 C        -8.1903613257        0.0462387700      -23.4754304649
 O        -7.9564557043        1.2694180042      -23.3809939707
 C        -9.3373978858       -0.5978591268      -22.5535889304
 C        -9.1374836520        0.1572205731      -21.1801646040
 O        -8.2858106299       -0.1935574942      -20.4029758712
 C       -10.1838523153        1.3978905754      -20.7430376007
 C        -9.6532332186        2.2923291320      -19.5870609665
 C        -8.2083054586        2.7010312746      -19.7217833780
 O        -7.8851555114        3.2802410348      -20.7581071910
 C        -7.2517038661        2.5926813739      -18.4777075314
 C        -5.8004648997        3.0418480694      -18.6835036880
 O        -5.2730473732        2.7445128847      -19.7725590956
 C        -5.0605417388        3.6087957599      -17.5209867571
 C        -3.5834002950        3.7937859131      -17.9070100070
 C        -2.7892454326        4.9403575142      -17.0277227417
 O        -3.3182210651        5.8778855002      -16.4977872426
 C        -1.1980377931        4.7572148718      -16.9280754402
 C        -0.8504697210        3.4478178659      -15.9710426760
 O        -0.6666227223        2.4197574174      -16.5580348933
 C        -0.8124491784        3.7169228979      -14.5205834817
 C        -1.0196320199        2.3850965884      -13.8107515510
 C        -2.4691217268        1.8950731539      -13.8051020717
 O        -3.3731090893        2.5861493570      -14.1877446246
 C        -2.7561542277        0.4853342048      -13.2911195103
 C        -2.1265757760        0.5722172061      -11.8232704271
 O        -0.9994645419        0.3480810548      -11.5585874984
 C        -3.1439467839        1.2240603094      -10.8814986125
 C        -2.6743618114        0.9456123833       -9.4122339407
 C        -3.4018346962       -0.1860166383       -8.7945267237
 O        -4.2651414836       -0.7134945677       -9.4396387615
 C        -3.2845046580       -0.4803050930       -7.2298391727
 C        -2.2974958336       -1.6304267768       -6.8617670720
 O        -2.2075520434       -2.1084408521       -5.7597306837
 C        -1.1485412639       -2.0587268843       -7.8498573605
 C         0.1057491619       -2.1767809356       -6.9820871290
 C         0.7770115678       -3.5993611429       -6.9701895870
 O         0.2753844622       -4.5260794082       -7.5755969601
 C         2.1698501788       -3.6555197433       -6.2892706290
 C         2.0875115436       -3.0624365550       -4.8505962675
 O         0.9668898726       -3.0676626096       -4.2721696420
 C         3.4046925055       -2.6735866956       -4.0405584261
 C         3.1513674650       -1.6994228336       -2.9042015728
 C         2.8467195296       -0.3413924281       -3.4650462508
 O         2.3158404891       -0.1502048263       -4.5660417204
 C         2.7231913393        0.8962469317       -2.3817803623
 C         1.5274935778        0.4162840544       -1.4113021025
 O         1.8053772740       -0.2779151835       -0.4830512642
 C         0.0710645486        0.6372335247       -1.9572943094
 C        -1.0936438304        0.2279373298       -1.0426714973
 C        -1.1601157455       -1.2739692861       -1.1853253726
 O        -0.5764180740       -1.9206810596       -1.9559575724
 C        -1.9772441344       -1.9439930089        0.0068590007
 C        -2.3078447994       -3.4163772335       -0.4458484559
 O        -2.1982123291       -3.6897479542       -1.6603786533
 C        -2.8547517371       -4.5060210649        0.4941729040
 C        -3.0539505044       -5.8952219807       -0.1801408524
 C        -2.0400037003       -6.9803277480        0.1786090089
 O        -1.0137670324       -6.7063325166        0.8125067589
 C        -2.2363090652       -8.5736548677       -0.3782707741
 C        -2.0818514622       -8.3916201070       -1.9146249746
 O        -3.0212875723       -7.8912827645       -2.5477120025
 C        -0.7100935140       -8.6626394558       -2.6761888513
 C        -0.7074579066       -8.2001160978       -4.1636222091
 C        -1.3773884882       -6.8130471965       -4.4014228174
 O        -0.7721414086       -5.8252273206       -4.0840439700
 C        -2.6908657540       -6.6485815651       -5.3454964225
 C        -3.7350183236       -5.7276747672       -4.5312627704
 O        -3.2521391180       -4.7058456166       -4.0906354951
 C        -5.1844217231       -6.1098411260       -4.2906595964
 C        -6.1323461132       -5.0240546122       -3.8992226465
 C        -7.5081230695       -5.7465158111       -3.6588834312
 O        -7.4504077213       -6.6798207486       -2.8811371530
 C        -8.9557154631       -5.0493561426       -4.0793483297
 C        -9.2104913934       -4.0466094755       -2.9762505776
 O        -9.0821385383       -2.8190872728       -3.0950915835
 C        -9.4281530613       -4.7311481303       -1.5779495296
 C        -8.9799648709       -4.4180791735       -5.4488726312
 C        -9.9643580838       -6.1933911829       -3.9929750667
 C        -2.3031853781       -5.8069250512       -6.5144784000
 C        -3.3898019834       -7.9254581460       -5.7290203681
 C        -1.1274936393       -9.3726401662        0.1762521312
 C        -3.7581588874       -9.0593472803       -0.2112088884
 C        -1.0819496650       -2.0425612908        1.3178975021
 C        -3.3380698987       -1.3147057385        0.3542109837
 C         3.9695108888        0.9710384309       -1.4376094932
 C         2.5791714678        2.2889360662       -3.2815728505
 C         2.6864363252       -5.1670988342       -6.0588953141
 C         3.1615250722       -2.7911978752       -7.1281983113
 C        -2.7725871926        0.7960436986       -6.5642309875
 C        -4.6985793504       -0.8197962218       -6.5912360962
 C        -4.1786149666        0.0983212026      -13.1877763738
 C        -1.9618172900       -0.5218624751      -14.1860501437
 C        -0.6909791455        4.4334954139      -18.3572289999
 C        -0.6274040940        6.0559413034      -16.3711250132
 C        -8.1398479038        3.4923833044      -17.5482283913
 C        -7.1252654782        1.1889937310      -17.9932037292
 C       -10.6685883469       -0.2248313979      -23.3540378823
 C        -9.2172060444       -2.1024765220      -22.2196386088
 C        -3.4557674974        0.4651919403      -25.5390935070
 C        -2.9692297898        1.2289280237      -23.0881043227
 H        -5.1721729151        4.2992255913      -25.8391659752
 H        -5.0268624725        2.6498747206      -26.6279324438
 H        -3.7621171506        3.6548984939      -26.1895920074
 H        -5.4745380585       -1.1633323661      -25.2544985547
 H        -6.2640691164        0.4937389094      -25.7470460933
 H        -7.3866391661       -1.8313971029      -24.0232818891
 H        -8.1318166823       -1.0520038000      -25.2886716460
 H       -11.1893946368        1.0783730512      -20.5825150692
 H       -10.2463103747        1.9926417611      -21.6946596157
 H        -9.8797919622        1.7671771667      -18.5732384098
 H       -10.2717398801        3.1815306640      -19.6530799264
 H        -5.2513018870        2.8566637900      -16.7581136117
 H        -5.4593543726        4.5779478068      -17.3075250937
 H        -3.7192469273        4.2042458741      -18.9396181338
 H        -3.0058300908        2.8741975847      -17.9631400441
 H        -1.5575292040        4.3768110541      -14.1869883319
 H         0.2306965504        4.0555302308      -14.2460146770
 H        -0.8318610466        2.3677959863      -12.7018256992
 H        -0.3876684947        1.7202056421      -14.3539850753
 H        -4.0879828189        0.8512864039      -11.0361969505
 H        -3.1890247571        2.3239851897      -10.8865620348
 H        -2.6236861694        1.9436272011       -8.7831782633
 H        -1.7251301138        0.6226250049       -9.4084184193
 H        -1.0283580454       -1.3295869737       -8.6773497749
 H        -1.3417548008       -3.0399262191       -8.2329686184
 H         0.0084374338       -1.9544753898       -5.9450402462
 H         0.8497022450       -1.3502638992       -7.2533253337
 H         4.0406711162       -2.2312327754       -4.7635539493
 H         3.9627755946       -3.5296336535       -3.7363753058
 H         3.9493538484       -1.5650553164       -2.2200759924
 H         2.2632273721       -1.8844973803       -2.2735134181
 H         0.0367550934        0.1865792917       -2.8589437586
 H         0.0267517485        1.6483493188       -2.1298542077
 H        -2.0098918410        0.7663584341       -1.3622242739
 H        -0.8914634259        0.5469181927        0.0267718954
 H        -3.8142349685       -4.1524765772        0.8714202348
 H        -2.2522675090       -4.4888757201        1.3924445283
 H        -2.9179105723       -5.7877881640       -1.1977908787
 H        -4.1251749170       -6.1430443357        0.0361056749
 H        -0.3342106469       -9.7298672519       -2.7406947009
 H         0.1430372254       -8.2006053582       -2.1147301411
 H        -1.1453954496       -9.0235952811       -4.7366381773
 H         0.2336962716       -8.2514409184       -4.6554854554
 H        -5.2262077171       -6.8688066864       -3.4943382007
 H        -5.5345455220       -6.5921212315       -5.2060557956
 H        -6.3581952150       -4.2503376685       -4.6966596112
 H        -5.7859134057       -4.5498554543       -3.0238271774
 H       -10.4580379605       -5.0627637455       -1.3656653512
 H        -9.1386269843       -4.1167440442       -0.7664046456
 H        -8.8070677689       -5.6100392450       -1.5112528359
 H        -8.2967031006       -3.6502213288       -5.5760017774
 H        -9.9350875660       -3.9633938655       -5.7351165596
 H        -8.6209185731       -5.2401066005       -6.1793084635
 H        -9.9416467930       -6.9600062449       -4.7496115546
 H       -10.9589806949       -5.7999508046       -4.0418630978
 H        -9.8536069209       -6.6170313456       -2.9622211584
 H        -3.1878599484       -5.6206339376       -7.1946011972
 H        -1.4669467089       -6.1627520563       -7.1240074012
 H        -1.8907501707       -4.8887462290       -6.1730685509
 H        -4.2372660960       -7.6916360136       -6.3674605454
 H        -3.8676890095       -8.3721009432       -4.8665475141
 H        -2.7301872981       -8.7318705161       -6.0991525170
 H        -0.9987268399      -10.2974979460       -0.3345955360
 H        -1.3550668535       -9.7100565299        1.1457328183
 H        -0.2563288107       -8.7419648112        0.2003151556
 H        -3.9948482485       -9.1497659944        0.8470483636
 H        -4.0289941711       -9.9643398169       -0.7500876812
 H        -4.3396288637       -8.1902805071       -0.5590964844
 H        -0.1374472305       -2.5841739247        1.0544693937
 H        -1.4693976969       -2.6897135555        2.1397351411
 H        -0.7199924389       -1.0847215559        1.5626218676
 H        -3.4755525278       -0.2622290300        0.2681146019
 H        -3.6009545824       -1.7960017233        1.3375770076
 H        -4.1444017617       -1.6849321113       -0.3372951914
 H         4.1020863675        0.3404436016       -0.5803484692
 H         4.0213187046        1.9383625287       -0.9074387177
 H         4.9244438392        0.7969953643       -2.0007825331
 H         2.1205082263        2.1640118398       -4.2429057488
 H         3.5737685875        2.6720184972       -3.4879082190
 H         2.1284486948        3.0850730981       -2.7349595334
 H         3.4558970886       -5.1786502070       -5.3123283706
 H         3.0298405231       -5.6530260952       -6.9912846621
 H         1.8935033374       -5.7948374119       -5.6009142613
 H         2.9591812547       -1.7663608698       -7.0122656132
 H         3.2573077783       -3.2493838359       -8.1360818141
 H         4.1136575331       -2.9885877415       -6.6343622779
 H        -1.8520310262        1.2310107990       -6.9547345796
 H        -2.6190580231        0.5644776982       -5.4603944471
 H        -3.5627837917        1.4918656931       -6.6288857775
 H        -4.4932980327       -1.4805362905       -5.7296903349
 H        -5.4026434869       -1.3400429778       -7.2354688976
 H        -5.0567732705        0.1007094476       -6.1644845582
 H        -4.8576814752        0.9811736595      -13.1607195933
 H        -4.4711113956       -0.4248606438      -12.2840842565
 H        -4.2998893149       -0.4889928101      -14.1227794025
 H        -0.9244391751       -0.3114163673      -14.0705022638
 H        -2.2227122124       -0.2861702085      -15.2033287291
 H        -2.0434062206       -1.5773356318      -13.9190423101
 H        -1.0911787746        5.2110565965      -19.0574988324
 H        -1.0762660825        3.4485150090      -18.6877986973
 H         0.3528141747        4.3893216825      -18.4797152756
 H        -0.7983001543        6.2799823580      -15.3453938107
 H        -1.1168757177        6.9035392170      -16.8759562633
 H         0.3847051720        6.2576100448      -16.6497520826
 H        -9.0089462934        3.0595236638      -17.2893296253
 H        -8.3127933885        4.4790872789      -17.9483327976
 H        -7.7078186169        3.4616937362      -16.5852895963
 H        -8.0482653699        0.8620221258      -17.3837860095
 H        -6.3165998999        1.0462063007      -17.3772951391
 H        -6.9228437663        0.4078100354      -18.7047829401
 H       -10.8300276075        0.7644226371      -23.8461300416
 H       -11.6284049389       -0.4863274244      -22.7324078126
 H       -10.7362206050       -0.9704991690      -24.1673206312
 H        -9.2878853183       -2.7902518791      -23.0994115580
 H        -9.9905193460       -2.4349891675      -21.5009490947
 H        -8.2158182270       -2.3393454148      -21.8129105567
 H        -2.6311892299        1.1514434781      -25.8922265055
 H        -4.1770240980        0.3655303511      -26.3641940760
 H        -3.1110565930       -0.5445129778      -25.2674316686
 H        -3.3747283397        1.5610195431      -22.1851677197
 H        -2.0726791697        1.8899516988      -23.3907975037
 H        -2.5757806668        0.2366426768      -22.9412335526
 Na       -1.2920982402       -3.4209083085       -3.9627963066
 Na       -6.2356070796        2.2276093361      -21.9068316937
