232

 C        -4.5711138941        3.1534347435      -25.8354566192
 C        -4.6327539024        2.5200175425      -24.4971430773
 O        -4.9763309236        3.1723240938      -23.5352431286
 C        -4.1360259843        1.0447117878      -24.2619967125
 C        -5.3552672814        0.1791833737      -23.8141998656
 O        -5.4128771421       -0.1093723128      -22.6767297092
 C        -6.3227615877       -0.3724302455      -24.9524472350
 C        -7.5582490069       -1.0206188878      -24.3255262977
 C        -8.1946194201       -0.0912618065      -23.3652123135
 O        -7.9070701676        1.0950531898      -23.2631935582
 C        -9.3794541513       -0.6678950440      -22.5530947121
 C        -9.3070866320        0.1864515434      -21.1413689559
 O        -8.3294077089       -0.0767833750      -20.4543338284
 C       -10.2524601595        1.3873991936      -20.8939162845
 C        -9.7850316334        2.0427048696      -19.5436802914
 C        -8.3876323828        2.7438882834      -19.5650921250
 O        -8.0350557453        3.2560098165      -20.5967359000
 C        -7.4120398092        2.7219102698      -18.2767564069
 C        -5.9698345647        3.0294624461      -18.6737457246
 O        -5.4353344946        2.7031663523      -19.7227913951
 C        -5.1234364949        3.9095204467      -17.6962073088
 C        -3.6168506879        3.9747535493      -18.0535887950
 C        -2.8772720087        5.0184808095      -17.1795283391
 O        -3.4163065347        5.9492967778      -16.6610718927
 C        -1.2486476328        4.8098182440      -16.9581351116
 C        -0.9116681843        3.5363365347      -16.0778252186
 O        -0.5477001857        2.4871233386      -16.6147751403
 C        -0.8376560062        3.6999757734      -14.5005393704
 C        -1.0651966442        2.3230019417      -13.8469191040
 C        -2.5093656459        1.9497842577      -13.9333210407
 O        -3.3538213182        2.7524646229      -14.2757990803
 C        -2.8361112989        0.4807009621      -13.4008133882
 C        -2.1467255355        0.5856783350      -11.8734157563
 O        -1.0202739593        0.0769653783      -11.7296292776
 C        -2.9273020939        1.3317578097      -10.7858250191
 C        -2.4582429895        0.8277575009       -9.3699109171
 C        -3.4154917731       -0.1642237071       -8.6817887332
 O        -4.2077014119       -0.8161069046       -9.3646076535
 C        -3.3802271605       -0.3430595984       -7.1244995322
 C        -2.1607668290       -1.4251128923       -6.7876728659
 O        -2.2748507969       -1.8630959868       -5.6501410681
 C        -1.1385445653       -2.0117746237       -7.7666984936
 C         0.2911851499       -1.9743417438       -7.2178744826
 C         0.8644895659       -3.4406546652       -7.1443506263
 O         0.5192889383       -4.4637067970       -7.6530008539
 C         2.2329217842       -3.6012101254       -6.2180072157
 C         2.0666306805       -2.9301199369       -4.7160427552
 O         1.0842224038       -3.0649725820       -4.0468563373
 C         3.4119049257       -2.5855847467       -3.9912730753
 C         3.1085870780       -1.7299823649       -2.8338752630
 C         2.7231593430       -0.1908300262       -3.4189612229
 O         2.5898318448        0.0179911598       -4.5977411893
 C         2.7182592443        0.9212079177       -2.2958204562
 C         1.5214480452        0.4340711370       -1.3776156986
 O         1.6596597912       -0.3557625610       -0.4746714229
 C         0.1000035245        0.9831681568       -1.7739182560
 C        -0.9522293740        0.2491153600       -0.9568394023
 C        -1.1059343463       -1.2551660630       -1.1773520056
 O        -0.6562210386       -1.8147700831       -2.2209456799
 C        -1.8616634499       -2.0297641915       -0.0480416715
 C        -2.0832785163       -3.6171786527       -0.4642031717
 O        -2.0441504734       -4.0230993900       -1.5557723768
 C        -2.5502250687       -4.7764409773        0.6162294684
 C        -3.0035377822       -6.1273716119       -0.1078603308
 C        -1.9247990145       -7.1616630401        0.0487548421
 O        -0.8941256026       -6.8951228335        0.5906174540
 C        -2.2909424361       -8.5774399287       -0.5815873914
 C        -2.2154420645       -8.2634364935       -2.1442346205
 O        -3.0764840276       -7.5476616265       -2.6608157130
 C        -0.8675453041       -8.6207241761       -2.7403087979
 C        -0.8780728756       -8.3119505258       -4.2158187264
 C        -1.4071965514       -6.8302993638       -4.4899868811
 O        -0.7334835266       -5.8923974844       -4.0552748350
 C        -2.7089050061       -6.6638466870       -5.2741064788
 C        -3.6655968757       -5.6199085206       -4.5138367388
 O        -3.4569233466       -4.5466909902       -4.0082394669
 C        -5.1311163994       -6.1843858123       -4.4631353872
 C        -6.0565026831       -5.0252048360       -4.1172342566
 C        -7.4370367885       -5.7084490673       -3.6315601706
 O        -7.4199447558       -6.6597524581       -2.9125281209
 C        -8.7964957750       -5.0397647193       -3.9613326637
 C        -9.2680946466       -4.1475954398       -2.8013602193
 O        -9.1751750126       -2.9737889228       -3.0371687085
 C        -9.4845758444       -4.7566775595       -1.4270800380
 C        -8.5148684648       -4.2923089180       -5.3698864879
 C        -9.7796348031       -6.1833410820       -4.2914405521
 C        -2.4280902808       -5.7383500137       -6.6149542982
 C        -3.2617485323       -7.9672386307       -5.8104339877
 C        -1.2899660564       -9.6453604483       -0.0983386788
 C        -3.6755619188       -9.1338716939       -0.1226703216
 C        -1.1062095268       -1.8476252336        1.2862543578
 C        -3.2668359058       -1.3479923831        0.1201021181
 C         4.1330645198        0.9740651222       -1.6981254367
 C         2.2730779935        2.3084635172       -2.7993444689
 C         2.5211293555       -5.0161865094       -5.9517417173
 C         3.2937432930       -2.9828282181       -7.2601035324
 C        -2.8569973860        0.9094035214       -6.3826548828
 C        -4.7296753939       -1.0173448750       -6.7391779693
 C        -4.3256862535        0.1445716375      -13.3571932226
 C        -2.0409491487       -0.5206878831      -14.1398436462
 C        -0.5756012448        4.6324454520      -18.3251407186
 C        -0.6756825106        6.0158069660      -16.1868300739
 C        -7.8175925889        3.3866745220      -17.0105875379
 C        -7.3560818849        1.2043170323      -17.8992027027
 C       -10.7311416937       -0.3476756237      -23.2183099075
 C        -9.2942324818       -2.1765238638      -22.2196588381
 C        -3.3635410432        0.7079269594      -25.5406262208
 C        -3.0320882264        1.2136695576      -23.1204308874
 H        -4.2615090497        4.1850248523      -25.8107589328
 H        -5.5633225956        3.0535429210      -26.2636469976
 H        -4.0242468160        2.8464357666      -26.7516723590
 H        -5.9122710430       -1.1107535610      -25.5515886531
 H        -6.6763560147        0.4871656870      -25.5701631852
 H        -7.3164271689       -2.0227326485      -23.7871601765
 H        -8.1049555214       -1.3653927068      -25.2349925004
 H       -11.3128903343        0.9486043677      -20.8287637099
 H       -10.3468467349        1.9733365804      -21.7935939697
 H        -9.9113221935        1.3544816124      -18.8260909003
 H       -10.5764951054        2.8085552708      -19.4035237412
 H        -5.2637091580        3.8146410797      -16.6052317783
 H        -5.6103921361        4.8630754988      -18.0656965651
 H        -3.5335954969        4.2149026635      -19.1226655090
 H        -3.1926469131        2.9235605365      -17.8678570378
 H        -1.5089981451        4.3665449239      -13.8872520540
 H         0.1859544961        3.8886385736      -14.2799929116
 H        -0.7779503771        2.1915393322      -12.8248240142
 H        -0.5732112894        1.5373012662      -14.4803238752
 H        -4.0663881537        1.2287781554      -10.9308227760
 H        -2.7197555659        2.3902489972      -10.7750770842
 H        -2.2945488721        1.5893889424       -8.7556672244
 H        -1.3521429050        0.3056092053       -9.4811589283
 H        -1.2425657488       -1.5762524951       -8.7377154163
 H        -1.5432947718       -3.0435471109       -7.8554294960
 H         0.5409709400       -1.4573913885       -6.2645960630
 H         0.8908357317       -1.4630075568       -7.8905482297
 H         4.1924090710       -2.0829755399       -4.6424666698
 H         3.8840210743       -3.5967328275       -3.7815450473
 H         3.9671598091       -1.6941816790       -2.1062308969
 H         2.2528622116       -2.0050891154       -2.2537970672
 H        -0.0828186656        0.6462015353       -2.8794322371
 H         0.0570470886        2.1443811609       -1.7292502553
 H        -1.8774172767        0.7357193861       -1.2587554335
 H        -0.7346836418        0.3218092170        0.0850996473
 H        -3.3146690930       -4.3973792243        1.3282807979
 H        -1.7112590339       -5.0150850157        1.3385932277
 H        -3.2376430036       -6.0359890153       -1.2635381676
 H        -3.8811636194       -6.4329636108        0.4210516578
 H        -0.6310858260       -9.6352158128       -2.5326408011
 H        -0.0660538266       -8.0339540281       -2.3374794316
 H        -1.4244671075       -9.0796463795       -4.7488536194
 H         0.0741007588       -8.4517681496       -4.7616972433
 H        -5.2172331669       -6.9036747925       -3.6425538684
 H        -5.4652223410       -6.6620017350       -5.3996166955
 H        -6.1500626111       -4.2086267687       -4.8477806321
 H        -5.6461341839       -4.5677574470       -3.1788921464
 H       -10.4686172759       -5.1566109387       -1.2547117204
 H        -9.4014287737       -3.9717415154       -0.6638292106
 H        -8.7953788836       -5.5465095148       -1.2898984759
 H        -8.0829411391       -3.2468005165       -5.2574564327
 H        -9.4910194904       -4.1139284733       -5.8056916123
 H        -7.9398075465       -4.8372408548       -6.0135869615
 H        -9.3148349461       -6.6481193856       -5.1675632495
 H       -10.7286977251       -5.9326926222       -4.8053055359
 H       -10.0035028934       -6.8053881032       -3.4556741803
 H        -3.3298216475       -5.7268120442       -7.0898636203
 H        -1.7882316144       -6.2344581205       -7.3169913903
 H        -1.9524989726       -4.7591350694       -6.5623606050
 H        -4.2622098986       -7.7814187990       -6.2289958558
 H        -3.4259858427       -8.7181949115       -5.0621069542
 H        -2.5452500501       -8.3756038469       -6.4976195726
 H        -1.3527441862      -10.6669177145       -0.5412424766
 H        -1.5423936391       -9.9534637753        0.9731805957
 H        -0.3057372744       -9.1647385705       -0.1324988295
 H        -3.6077223767       -9.1129368434        0.9715339564
 H        -3.6411351383      -10.1897074769       -0.4102209858
 H        -4.6172050027       -8.6951265267       -0.4276166759
 H        -0.0674748017       -2.0548584214        1.3405745529
 H        -1.6500183595       -2.5599715118        1.8743831037
 H        -1.2892007934       -0.8614499224        1.8043984071
 H        -3.0823557559       -0.2660632128        0.4102432774
 H        -3.7978817767       -1.8019507959        0.9389851235
 H        -3.8766870099       -1.2797985517       -0.7795935231
 H         4.3077930714        0.2126568885       -0.9059554370
 H         4.4217166506        1.8392501979       -1.1740089517
 H         4.8415104302        0.6446682240       -2.4098788310
 H         1.2928846564        2.3508334654       -3.2653473619
 H         3.0370481909        2.6684671131       -3.4485624536
 H         2.2921176187        3.0720832427       -2.0364731616
 H         3.4620675629       -5.0414571821       -5.2921806204
 H         2.7068626056       -5.5266772447       -6.8863661251
 H         1.7999832276       -5.5544405705       -5.3526474255
 H         3.2784028188       -1.8739735596       -7.0431759401
 H         3.0457006537       -3.3464294911       -8.3119884498
 H         4.2808324158       -3.3298047833       -6.8849979667
 H        -1.7654747803        0.8979561094       -6.3467256932
 H        -3.1141646550        0.8586752234       -5.3355117536
 H        -3.2598490757        1.8921903330       -6.7820955235
 H        -4.9084468644       -1.0050092849       -5.6601526794
 H        -4.6628167355       -2.0677696972       -6.9776430768
 H        -5.5282504940       -0.4642883320       -7.2643457498
 H        -4.8119253813        0.7736408923      -12.6514690401
 H        -4.5759540624       -0.9248829587      -13.0205820589
 H        -4.6646690807        0.1542956577      -14.3745245834
 H        -0.9977369709       -0.7239187629      -13.9892199616
 H        -2.2725864493       -0.2494641737      -15.1696125498
 H        -2.4936320778       -1.4611845946      -13.9242561003
 H        -0.6057069458        5.5887403970      -18.8422606897
 H        -1.1254645013        3.9560105649      -19.0046814835
 H         0.5019720937        4.2447347298      -18.2375074285
 H        -1.0602704607        6.1355314090      -15.1534548209
 H        -0.9772356932        6.9535069064      -16.6573200618
 H         0.4401145648        6.1229697991      -16.2852176154
 H        -8.9663386482        3.2859965905      -16.9364586914
 H        -7.6255624538        4.4725386343      -17.1041727939
 H        -7.5276542710        2.8737462418      -16.0617820840
 H        -8.2746031229        0.7866991375      -17.8814627838
 H        -6.8076472448        0.9337107468      -16.9529401389
 H        -6.7756255931        0.5982667574      -18.5907478564
 H       -10.7039361741        0.7356229683      -23.3130021598
 H       -11.5844248286       -0.6362476798      -22.6580819774
 H       -10.8903449099       -0.6803337989      -24.2516592412
 H        -9.3422466114       -2.8446798973      -23.0770383793
 H       -10.1087320224       -2.4802200602      -21.5909666512
 H        -8.3629975752       -2.3648297473      -21.7284431673
 H        -2.5463139435        1.3622625566      -25.6620746616
 H        -4.0384353855        0.9241102978      -26.3629175327
 H        -3.0589223978       -0.3584289411      -25.5108266900
 H        -3.5564633256        1.6092930790      -22.1763291604
 H        -2.3658206044        2.0132606501      -23.3713085660
 H        -2.4400436134        0.2954357288      -22.8869467966
 Na       -1.3342750913       -3.4708624591       -3.9892307498
 Na       -6.3280792709        2.1282977806      -21.8094439167
