232

 C       -12.9751215407      -17.7566342047       -3.8479865767
 C       -13.7860920892      -16.5545841789       -4.2783862282
 O       -13.3584643671      -15.4436757445       -4.4937896043
 C       -15.3867029968      -16.7485793421       -4.3970087673
 C       -15.9281329176      -15.7122508101       -5.3528111809
 O       -15.9400436373      -14.5493948882       -4.9575793502
 C       -16.6378875549      -16.0271877542       -6.6597753718
 C       -17.0129438592      -14.7984743287       -7.4749072813
 C       -15.7014408128      -14.0915112519       -7.9905617202
 O       -14.5975857850      -14.6328947658       -7.6666493208
 C       -15.7469995017      -12.6542827359       -8.5719188394
 C       -16.1075941618      -11.7147715542       -7.3944551347
 O       -16.8933996163      -12.0177534983       -6.5439080563
 C       -15.4171661705      -10.3506894466       -7.4413686424
 C       -15.5016962215       -9.5982840733       -6.1685439116
 C       -14.4569854722       -9.9762823932       -5.0651092472
 O       -14.3167421702      -11.1195165285       -4.7406152151
 C       -13.6451463093       -8.7430176043       -4.3665558888
 C       -12.8542885502       -7.9630994469       -5.5551909573
 O       -12.9621550436       -8.4348930176       -6.6968459457
 C       -11.9796826062       -6.7729042316       -5.2420146543
 C       -11.8039503235       -5.7282352921       -6.3135711768
 C       -12.9038773176       -4.6945277639       -6.4734907466
 O       -13.9229696714       -4.7633082995       -5.8522403686
 C       -12.5712538590       -3.4357010522       -7.3857504298
 C       -11.7310972211       -2.5080570019       -6.4012277255
 O       -11.0983060305       -3.0322547465       -5.4702965472
 C       -11.6026741848       -1.0519687317       -6.7083410765
 C       -10.1901112037       -0.4589637840       -6.3913122203
 C       -10.1699531424        0.8378480413       -5.5764350148
 O       -10.7804764483        1.8527748636       -5.8906309904
 C        -9.1137243304        0.8857743814       -4.2508148172
 C        -7.8318456086        0.4033939384       -5.0491254292
 O        -7.6914081914       -0.7785017736       -5.4469037261
 C        -6.8354491090        1.3584834876       -5.4866325649
 C        -7.1399306138        2.1348178677       -6.7311573804
 C        -6.2619063327        3.3145070018       -6.8605331896
 O        -5.7922589193        3.9083362603       -5.9618021800
 C        -6.0592933037        3.9414735087       -8.3656561594
 C        -5.1504702616        2.8748731948       -9.0810421784
 O        -5.6739078486        1.8167614111       -9.3982501286
 C        -3.7298001245        3.2967155122       -9.2586657595
 C        -2.8845250350        2.0834086982       -9.6107293560
 C        -1.6474185723        2.3668424514      -10.5327169159
 O        -1.7808662151        2.7303090342      -11.6424235395
 C        -0.1710526136        2.1260449727       -9.9748689709
 C         0.9201556034        2.3644378081      -11.0755198978
 O         1.6314656395        1.5110735368      -11.5364644072
 C         0.9212687649        3.6884161846      -11.7626380290
 C         2.2854975541        4.4278275720      -11.6725020892
 C         2.1220315112        5.9064660773      -12.1978991731
 O         1.1423565809        6.5446035118      -12.0145889513
 C         3.3861284450        6.3604803317      -12.8865228509
 C         3.7138364846        5.2640442715      -13.9993841567
 O         4.8991809010        4.8637554575      -14.0059375203
 C         2.6754830346        4.7515021305      -15.0318058478
 C         2.9702964016        5.2463983592      -16.4674312907
 C         3.9651228362        4.4436316509      -17.3037243263
 O         4.1924102836        3.2475639206      -17.0923990574
 C         4.5770423271        5.0740521436      -18.7020302503
 C         6.0881775940        5.2107276250      -18.5657317846
 O         6.8324024279        4.9951880425      -19.4804625760
 C         6.6959430398        5.7416040443      -17.2432350834
 C         8.1344580960        5.2309846077      -16.9531444192
 C         8.3694617852        3.7150398430      -16.9363786701
 O         7.6329924573        2.8669782468      -16.3976276448
 C         9.7231210135        3.1698475074      -17.5144367258
 C        10.9445968265        3.3938439852      -16.4897605111
 O        11.1605717451        4.4421291069      -15.9769214452
 C        11.7977145032        2.1408239637      -16.0219998817
 C        12.4027909166        2.4144077096      -14.7207291384
 C        11.3317252381        2.2768765726      -13.6073493799
 O        10.3410149627        1.6109071276      -13.8066618789
 C        11.5323267993        3.2169891972      -12.3415248954
 C        10.5662825705        2.7463477576      -11.0524023952
 O        11.0666231667        2.2669758332      -10.0918976109
 C         9.0069705796        2.9392524047      -11.3186915098
 C         8.2685851599        1.5746508821      -11.4295199354
 C         7.0109376708        1.6315044869      -12.3195029373
 O         6.9451009912        2.4722527697      -13.2285991989
 C         5.9626707690        0.5201180159      -12.2426206027
 C         5.7839856212       -0.0425913906      -13.7092480934
 O         5.2273596650        0.5805973266      -14.5607769364
 C         6.3649741777       -1.4226295993      -14.1125360766
 C         6.2181992295       -0.6427834509      -11.2760856471
 C         4.6664705891        1.4051947172      -11.9035131882
 C        13.0403313803        3.0616861177      -11.7988770060
 C        11.4202365581        4.6655250055      -12.7449266590
 C         9.4467513080        1.6750705859      -17.7511605608
 C        10.1582255103        3.7467369087      -19.0124461461
 C         4.0040423360        4.2747429567      -20.0433934842
 C         3.7774504692        6.4840267222      -18.9478164454
 C         3.0549307453        7.8197802445      -13.5911028603
 C         4.5689573459        6.2524281942      -11.9108730410
 C         0.1238803652        3.0586476801       -8.7481765947
 C        -0.1777147294        0.7649907684       -9.3355194673
 C        -7.4001091237        4.0611203302       -9.1173243904
 C        -5.6364942690        5.4402061154       -8.2177662336
 C        -9.0820541535        2.2110427733       -3.6277354850
 C        -9.4732500676       -0.1758043097       -3.2361158542
 C       -11.8684085603       -3.6099239979       -8.7193773449
 C       -13.9056029266       -2.7193922926       -7.5000627085
 C       -14.6305570467       -7.8245233998       -3.7038954556
 C       -12.5528554169       -9.3188889134       -3.4636009174
 C       -14.4224099534      -12.4257292621       -9.3669431653
 C       -16.8673609542      -12.4620636246       -9.6376335347
 C       -15.7281436964      -18.1716419690       -4.8436011383
 C       -16.1140544668      -16.4908118629       -3.0510544417
 H       -12.7415623908      -18.4508862046       -4.6625990846
 H       -13.5433342847      -18.3129648014       -3.1154368652
 H       -12.0767479502      -17.4427819571       -3.3326735830
 H       -17.4794136759      -16.7267600537       -6.5712926310
 H       -15.8410453574      -16.5302086388       -7.1855418149
 H       -17.5364139714      -14.0857371338       -6.7975291973
 H       -17.6322617764      -14.9406829708       -8.3775002632
 H       -15.7893277395       -9.6488995147       -8.2905881665
 H       -14.3871140123      -10.5384301364       -7.7191224215
 H       -16.4621924987       -9.7790314623       -5.6994150129
 H       -15.3747411600       -8.4726184622       -6.3423540427
 H       -11.0075177238       -7.1554590833       -4.8423117374
 H       -12.4041209305       -6.2669458911       -4.3236709343
 H       -11.8122041360       -6.3145188875       -7.2174739126
 H       -10.7240424480       -5.5386971674       -6.3574954868
 H       -12.3807416591       -0.4125723140       -6.2323375249
 H       -12.0265242787       -0.7846106566       -7.7263333702
 H        -9.6711171832       -0.1911344062       -7.3065885234
 H        -9.5629232992       -1.2288526638       -5.9273744091
 H        -5.9754851950        0.8069993592       -5.6487099674
 H        -6.6262510865        2.1218288527       -4.7321928779
 H        -8.2002220897        2.4225718497       -6.8460378050
 H        -6.9371813226        1.5045085813       -7.5661942365
 H        -3.4556533035        3.8992613712       -8.3431808631
 H        -3.7267232389        3.9950545367      -10.0868600335
 H        -3.4522241464        1.3402447585      -10.1269399769
 H        -2.6400414321        1.7031992114       -8.5887476652
 H         0.1111109096        4.3209957851      -11.5523964941
 H         0.7616905837        3.4742733287      -12.7932812098
 H         2.9355460614        3.8248297574      -12.3393558481
 H         2.7282589819        4.4926583761      -10.7363051949
 H         1.5818316036        5.0874454818      -14.7958679111
 H         2.7161416327        3.6526849303      -14.9435173439
 H         3.3000231185        6.3056204001      -16.5614413086
 H         2.0843513480        5.2602057214      -17.0655722422
 H         6.1123721071        5.5818048607      -16.3201064385
 H         6.7324093324        6.7848331099      -17.3101879794
 H         8.6492088291        5.4911508188      -15.9451430712
 H         8.8616875543        5.7239363140      -17.6842519020
 H        12.6459007788        1.9454151556      -16.7476139619
 H        11.1621107856        1.1894988269      -15.9950603703
 H        12.8953476656        3.3963360837      -14.8076192286
 H        13.2739034051        1.7138658232      -14.4753670925
 H         8.8428952015        3.4974200296      -12.2322732040
 H         8.5150161151        3.5606628564      -10.5729301061
 H         8.0880883181        1.1829195373      -10.4632431176
 H         8.8402790081        0.6896180464      -11.8611975984
 H         5.8223601315       -2.1947767132      -13.6529371495
 H         7.4229612571       -1.5033514135      -13.9048645426
 H         6.0576565567       -1.6666207422      -15.1845900439
 H         5.4491767394       -1.3984554344      -11.0673024967
 H         6.4509399085       -0.2470186834      -10.3129166968
 H         7.1033622573       -1.1666605923      -11.4979567647
 H         3.8266815245        1.1243374663      -12.5728978712
 H         4.9023012250        2.4357046484      -11.9857084878
 H         4.3367753382        1.1594254942      -10.8260473312
 H        13.6199589225        3.5387318898      -12.5639124333
 H        13.4057491675        1.9955689148      -11.7950251298
 H        13.1407000933        3.5876763293      -10.8593845446
 H        11.9007669180        4.8763862875      -13.7019713503
 H        11.8142463962        5.3411307438      -11.9946575700
 H        10.3986950356        4.9338236335      -12.9784928050
 H         8.8617605898        1.4065107916      -16.9138750957
 H        10.2734050832        0.9819320318      -17.8239690648
 H         9.0194325777        1.5197647914      -18.7091383173
 H        10.4619165631        4.8081492149      -18.9280468063
 H         9.2578133146        3.6521240112      -19.6092004783
 H        10.9061704727        3.0816907394      -19.5201084442
 H         3.9924827222        5.0102092409      -20.7896674221
 H         2.9640168650        3.8290172514      -20.0219463770
 H         4.6813167413        3.4611525977      -20.3515491707
 H         4.1551339955        6.9371878740      -19.8280844286
 H         3.6832990180        7.1956560994      -18.1554769564
 H         2.8058862522        6.1042890126      -19.2925069145
 H         3.0955600364        8.5752163507      -12.8732698622
 H         1.9798249335        7.8124293988      -13.9413781368
 H         3.6818548154        7.9541511720      -14.4664094079
 H         5.5760639910        6.5409095955      -12.3281266688
 H         4.7422096337        5.2173428647      -11.5079283115
 H         4.6757479194        6.9620092298      -11.1341813451
 H         1.1537318257        2.9624323192       -8.3092878100
 H        -0.5171807861        2.7826165996       -7.9843594417
 H        -0.0430321548        4.1285798909       -9.0586000294
 H        -1.0079764613        0.6868100410       -8.7325005687
 H         0.7259114959        0.7819584899       -8.6776298682
 H        -0.2022801550        0.0005925761      -10.0775863463
 H        -7.8491481087        3.1142365257       -9.3673880289
 H        -7.1835428659        4.5785079581      -10.0273497411
 H        -8.1406914872        4.6331825083       -8.6284236062
 H        -5.2670495243        5.9750367132       -9.1456272258
 H        -4.8580431403        5.5215016479       -7.4910937211
 H        -6.5365166200        5.9358364079       -7.8451681681
 H       -10.1444048594        2.4031149498       -3.2776131161
 H        -8.9219293765        3.0811253368       -4.3346258460
 H        -8.2938286508        2.3303747201       -2.9065495211
 H        -8.6520491876       -0.4468382447       -2.5882762084
 H        -9.5656139181       -1.1839691660       -3.7093164143
 H       -10.3904881495        0.1732716498       -2.6868183899
 H       -12.2058478449       -2.9142837548       -9.4754276831
 H       -12.0057018648       -4.5948557204       -9.0924727929
 H       -10.8164255760       -3.3998557000       -8.5012056873
 H       -14.6499064853       -3.4676270809       -7.5101720074
 H       -13.9359814062       -2.1861441680       -8.3979880845
 H       -14.1579241601       -2.1488008586       -6.6153322765
 H       -15.3164239282       -7.2787094045       -4.2923299349
 H       -14.1053042495       -6.9887972500       -3.1999739247
 H       -15.2784962957       -8.3005603682       -3.0009932028
 H       -12.0561436806      -10.0932635162       -4.0508020729
 H       -12.9883653876       -9.7320872783       -2.6211263464
 H       -11.9218267871       -8.5100094667       -2.9806016121
 H       -13.4797751476      -12.4782257143       -8.8304608428
 H       -14.4721651954      -11.4476487062       -9.8346753321
 H       -14.3230992667      -13.1964180291      -10.1198641342
 H       -17.0095201092      -13.3184460895      -10.3732571265
 H       -16.6285241320      -11.4998772736      -10.1824294802
 H       -17.9444614303      -12.2732330798       -9.2110062260
 H       -15.4172123823      -18.5766448335       -5.7407150006
 H       -16.7944886009      -18.1433859912       -4.8224189064
 H       -15.4064814071      -18.8948913401       -4.0186184952
 H       -15.8267625177      -15.4558356297       -2.8457289677
 H       -15.6227543301      -16.9940695229       -2.2283321170
 H       -17.1709414236      -16.6113227707       -2.9829878959
 Na      -14.0460489630      -13.3114163345       -5.1940100562
 Na        5.6526021548        2.7750529161      -15.1714702473
