232

 C       -20.7024573924       -8.0195219421       -4.4772571037
 C       -20.5913682491       -6.6087888821       -3.9484820341
 O       -19.9020945613       -6.4218652853       -2.9231769221
 C       -21.3514443085       -5.3553081964       -4.5220535291
 C       -20.3440899097       -4.1314014692       -4.5921534532
 O       -19.9473903257       -3.6599066421       -3.5439014012
 C       -19.9479117422       -3.4540496457       -5.9299016954
 C       -18.5776034667       -3.8257607604       -6.4972815273
 C       -17.5271244419       -4.0403263850       -5.3074965501
 O       -17.4865358261       -5.1232196889       -4.6718039134
 C       -16.4150380734       -2.9670953624       -5.0417924707
 C       -16.2535387678       -2.8008102287       -3.5580745521
 O       -17.0708018468       -2.1614482242       -2.9641787702
 C       -15.0880673738       -3.4782825643       -2.8212774477
 C       -15.0920690611       -3.2275226270       -1.3902105192
 C       -15.5242167792       -4.4394745000       -0.5050152765
 O       -16.5882905219       -4.9659995809       -0.7868819184
 C       -14.7620728264       -4.9384025179        0.7551986166
 C       -13.3957329215       -5.5075158197        0.2861741011
 O       -12.3401111387       -5.1855621217        0.7725692595
 C       -13.3657105638       -6.5289434188       -0.9312718265
 C       -12.1206469605       -6.3625172282       -1.8398077856
 C       -12.0953209712       -7.3684993915       -3.0244183725
 O       -12.8549563682       -7.1247938715       -3.9431841055
 C       -11.1782308532       -8.6539156299       -2.9672269194
 C        -9.7705425682       -8.0001911867       -2.9150367917
 O        -9.3427458618       -7.6380055743       -1.8176164549
 C        -8.8462027654       -7.7921779038       -4.1796568686
 C        -7.5789789910       -7.0466143338       -3.5572490496
 C        -7.7162885622       -5.5088321566       -3.7053583083
 O        -8.7471848039       -4.8677466027       -3.9004285227
 C        -6.3784274815       -4.7902313018       -3.8087410748
 C        -5.6229435939       -5.1644264772       -5.1167176791
 O        -6.1356750236       -5.9645397530       -5.8733467512
 C        -4.2460258704       -4.4742774023       -5.5074450222
 C        -3.4632083761       -5.3269132550       -6.5967998775
 C        -2.6428294820       -4.2420987812       -7.5618339048
 O        -3.1177873366       -3.4286746381       -8.2615714511
 C        -1.1105469976       -4.1666124067       -7.3442445512
 C        -0.2865716877       -4.8581065248       -8.5574508018
 O         0.6933964602       -5.5033570135       -8.3193465521
 C        -0.9783876104       -4.6987987553       -9.8858694482
 C        -0.4661332810       -5.6264358511      -10.9859437647
 C         0.5233985940       -4.8221039518      -11.8669729677
 O         0.2254700114       -3.7800366878      -12.4525590040
 C         2.0098154385       -5.4586978080      -12.1227594492
 C         2.5646714093       -4.6699588828      -13.3869339218
 O         2.6200032237       -5.1164885199      -14.4952285215
 C         2.7549497341       -3.1314912668      -13.2179055479
 C         3.3831020264       -2.3487668508      -14.4082180927
 C         3.0961006585       -0.8764138000      -14.0202774193
 O         1.9779201226       -0.4042910084      -14.1751610733
 C         4.2067455154       -0.0610183465      -13.1916178518
 C         4.5632825129        1.1925240376      -13.9884479749
 O         5.4295953292        1.0158248661      -14.7870752900
 C         3.6208779026        2.4262342865      -14.1117652785
 C         4.0207131779        3.4946103460      -13.0577688252
 C         5.3654727595        4.1294111148      -13.3728373771
 O         5.9899879731        3.7045332888      -14.3428780170
 C         6.0246849608        5.3316617120      -12.5277106665
 C         6.1003820070        6.5151024352      -13.6090358022
 O         5.1279180015        6.8690576732      -14.2292804340
 C         7.5268512334        6.9789495131      -14.1530943357
 C         7.5343732095        7.4578881728      -15.6675363146
 C         6.9865641017        6.2469644065      -16.5288976844
 O         7.0746354010        5.0966963473      -16.1679297999
 C         6.6408814306        6.5499789881      -17.9909326959
 C         7.9346031168        6.2753853719      -18.8115719910
 O         8.6271896010        5.3024202777      -18.5383141560
 C         8.3079769755        7.0346075233      -20.1743311518
 C         9.3093763002        6.2243476205      -21.0812176684
 C         8.4244357753        5.3093498253      -21.9386163172
 O         7.3186096255        5.7145513904      -22.2766528263
 C         8.9568082932        3.9255984520      -22.5030039034
 C         8.7572505187        2.9013026159      -21.1646783161
 O         7.6674885081        2.3611457828      -21.0900179291
 C         9.9128419285        2.6825763065      -20.1563557500
 C         9.7020185444        1.3749791386      -19.4495097621
 C         8.3656920443        1.5889989617      -18.6261525935
 O         8.3978293280        2.2506146743      -17.5901727254
 C         7.0259839975        0.6758868631      -18.8996721738
 C         5.6517386088        1.5372322698      -19.1218034968
 O         5.3762200739        2.2111475690      -18.1532978763
 C         4.9283354236        1.5442938099      -20.3426479073
 C         7.1448753573       -0.3519116520      -20.1278647448
 C         6.8125226388       -0.2198593371      -17.6247586455
 C         8.0569094626        3.1818798679      -23.5616659264
 C        10.3741985953        4.1830254112      -23.0297874261
 C         5.5430349369        5.5519992996      -18.5520403793
 C         6.1050468157        7.9666850593      -18.2582744862
 C         5.0964324444        5.7886438580      -11.3490703863
 C         7.4621784337        4.8940772796      -11.9684093550
 C         3.4547487777        0.4441579376      -11.9012663151
 C         5.4839279091       -0.8408716464      -12.8005797841
 C         2.7863591782       -5.1188918168      -10.8553069653
 C         1.9155938472       -6.9912508857      -12.3358796578
 C        -0.6478934864       -2.7055159044       -7.3940972272
 C        -0.5721250396       -4.8739787878       -6.0774185386
 C        -6.5507753642       -3.2581337345       -3.8841603035
 C        -5.4172529035       -5.0700050180       -2.5351541232
 C       -11.5257170632       -9.4790042726       -1.6546203271
 C       -11.2247201597       -9.5418711138       -4.3019338737
 C       -14.4439625488       -3.8150485054        1.7529952394
 C       -15.6306348616       -6.0360961378        1.4453527830
 C       -15.1939769986       -3.5404561894       -5.7893870748
 C       -16.7750008079       -1.5395485585       -5.5808534738
 C       -21.9723328957       -5.5214407980       -5.9014635938
 C       -22.4214162938       -4.9872718417       -3.3338902834
 H       -20.9216094135       -8.6870756540       -3.6332345649
 H       -19.7904914226       -8.1984713875       -4.9501604388
 H       -21.4880532805       -8.0697327187       -5.2206210215
 H       -19.9428688821       -2.3783369620       -5.8347194192
 H       -20.6883213933       -3.6088186707       -6.6781322374
 H       -18.3056384144       -3.0476096954       -7.1844543445
 H       -18.6469824271       -4.7654510277       -7.1003236767
 H       -14.0581377306       -3.1691656807       -3.2128395241
 H       -15.1585513736       -4.4918926771       -3.1360543316
 H       -15.8676432693       -2.3977376220       -1.1582828800
 H       -14.1964255158       -2.8604390813       -1.0604993424
 H       -14.2008210409       -6.2040466391       -1.5952197284
 H       -13.6404167649       -7.5579796816       -0.5376238798
 H       -11.2188267295       -6.2022627275       -1.2040718928
 H       -12.2356320360       -5.3900296387       -2.2043316185
 H        -9.4101783320       -7.2283636720       -4.8912912088
 H        -8.4351983973       -8.6829670502       -4.6469837759
 H        -6.7025170532       -7.2796605345       -4.0831233383
 H        -7.5240326483       -7.4302052863       -2.5558068205
 H        -3.6459762908       -4.5409012389       -4.5828149370
 H        -4.4796187530       -3.4283262010       -5.8449741845
 H        -4.0911154924       -5.8665793990       -7.2833855904
 H        -2.7877126169       -5.9898506486       -6.0166454757
 H        -0.6971184833       -3.6302207068      -10.1658496403
 H        -2.0365689253       -4.7667976733       -9.7918439878
 H        -1.2644671313       -5.9751959234      -11.5624147452
 H         0.0896282975       -6.4186188020      -10.4985986473
 H         3.3154280649       -2.9018443603      -12.3234237045
 H         1.7797590386       -2.6647875196      -13.1521314785
 H         2.7852296201       -2.5707304831      -15.2942523081
 H         4.4576057683       -2.4370595939      -14.6882997649
 H         2.6744230750        2.0530643072      -13.8369765114
 H         3.5397900189        2.8662051565      -15.0909218391
 H         3.9771379348        3.2013779125      -11.9774523813
 H         3.1881963596        4.2607152875      -12.9056118479
 H         8.3541032158        6.2953556369      -14.1150902949
 H         7.8281765159        7.7327172390      -13.4426677716
 H         8.4247605372        7.7500893722      -16.0279145070
 H         6.7503589571        8.2349620206      -15.7501020316
 H         8.8310327393        7.9457832235      -20.0184806331
 H         7.3525635652        7.0432217517      -20.6854276094
 H        10.0106322819        5.6332952429      -20.4542065893
 H         9.8596101389        6.9753788904      -21.7069632938
 H        10.0834078062        3.4918114019      -19.4484669443
 H        10.7956446908        2.8419226234      -20.7160587193
 H        10.5228198128        1.3684333825      -18.7164931330
 H         9.7063477478        0.5556319427      -20.1635593951
 H         5.0067269952        2.5243610382      -20.8743827805
 H         3.8490199313        1.4054235911      -20.1305073219
 H         5.2968905244        0.8203696577      -21.0214531750
 H         6.6321001367       -1.2825513021      -19.9181625319
 H         8.1670872314       -0.7739927351      -20.1929479021
 H         6.8933319443       -0.1230042147      -21.1688465800
 H         6.8582633595       -1.3487473905      -17.9306425953
 H         5.8093889182       -0.0490993078      -17.1207845710
 H         7.5718353812       -0.0510114851      -16.8280620702
 H         8.7619372376        2.6074581401      -24.2855334191
 H         7.6784910513        4.0233904808      -24.1777127985
 H         7.4530879808        2.3988690166      -23.1846343482
 H        10.5964909594        3.3492044259      -23.6284021621
 H        11.0713665979        4.3226996419      -22.2182178770
 H        10.4023175948        5.0936912837      -23.5787545663
 H         4.5470284181        5.9036001633      -18.1680675712
 H         5.7385804450        4.4781361421      -18.3553829494
 H         5.5038349627        5.6811207454      -19.6153655530
 H         6.9165359641        8.6693272634      -18.2299853649
 H         5.4433078864        8.1699424168      -17.3415700127
 H         5.5408469574        8.1065390953      -19.1554250064
 H         5.5728088852        6.6425216070      -10.7487723741
 H         4.8716535165        5.0252502246      -10.6499898076
 H         4.2622855661        6.3361974967      -11.7580342691
 H         7.4116024827        4.5061439885      -10.9326334674
 H         8.1079755792        5.7518515346      -11.9153559595
 H         7.8922828495        4.1488454820      -12.5121016185
 H         4.1780593565        0.8265110893      -11.1932298643
 H         2.8614827418       -0.3347763535      -11.4392762414
 H         2.6818466115        1.1745375865      -12.3011500775
 H         5.4361342599       -1.4869901168      -11.9700004717
 H         6.1955275438       -0.0571354865      -12.4356287579
 H         5.7964377363       -1.3415493789      -13.6789946588
 H         2.4168308955       -5.6975212780      -10.0641578244
 H         2.6300939203       -4.0289522816      -10.6480042676
 H         3.8297268870       -5.3942703406      -11.0423512635
 H         2.1724886444       -7.5067149504      -11.4779665820
 H         2.5890216643       -7.3681195248      -13.0995721704
 H         0.9223157886       -7.3115894180      -12.6703625989
 H        -1.1945390346       -2.1056302884       -6.6631588162
 H        -0.8601853228       -2.3784885977       -8.4305579119
 H         0.4771356139       -2.5664296083       -7.1739738914
 H        -0.6703422428       -5.9775050917       -6.2267514060
 H        -1.0316488345       -4.6015053242       -5.1645596808
 H         0.4481984077       -4.6288119930       -5.7810325369
 H        -6.7530470510       -2.9769230770       -4.8978324769
 H        -5.7634622063       -2.6370460220       -3.4806247075
 H        -7.4451769648       -2.9874257478       -3.2476908777
 H        -5.9490310271       -5.2824630651       -1.6052135852
 H        -4.7133819086       -4.2191424493       -2.4547278090
 H        -4.8426348430       -5.9218812863       -2.7521262760
 H       -12.5212600785       -9.8985956393       -1.5882379807
 H       -11.4250080195       -8.7296291126       -0.8452065507
 H       -10.8094137315      -10.2485595303       -1.4158326023
 H       -12.2019470554       -9.9350566951       -4.3596899100
 H       -10.5797020765      -10.3850972129       -4.4018752778
 H       -10.9289171532       -8.8716613721       -5.1630076007
 H       -15.1371903794       -3.8682220852        2.6067323383
 H       -14.5092996811       -2.8449055393        1.2501994821
 H       -13.4620616072       -4.0006794315        2.2611756582
 H       -15.4755755766       -6.0929089389        2.5388902062
 H       -15.3551707654       -7.0334881159        0.9750772481
 H       -16.6804581427       -5.7509390005        1.2439844255
 H       -15.2358443373       -4.5842387485       -5.9908185936
 H       -14.2715002516       -3.3573380598       -5.1673584885
 H       -15.0891591693       -3.0111913598       -6.7011437624
 H       -17.6558947316       -1.2187991117       -5.1956023347
 H       -16.6206311036       -1.5590994847       -6.6865309750
 H       -15.9506529098       -0.8627771388       -5.2996758632
 H       -21.0951798355       -5.8329250909       -6.5114206896
 H       -22.4866360520       -4.5940445769       -6.3263998645
 H       -22.5932901598       -6.3728307326       -5.8589155045
 H       -23.4095498955       -4.5689014576       -3.7179936322
 H       -21.9228360742       -4.3491981182       -2.6277990423
 H       -22.6853940842       -5.8045618135       -2.7292173046
 Na      -18.2122747057       -4.7279656074       -2.2197162958
 Na        6.5006958423        2.4357199585      -16.1641673041
