232

 C        -6.2031358230        0.5500147684      -12.1831496278
 C        -6.4832911948        1.7420254152      -11.2485233059
 O        -6.0947085627        1.7330009014      -10.0860845031
 C        -7.4128680249        2.9422338881      -11.6999060132
 C        -6.7459090459        4.2957117528      -11.3635265692
 O        -7.0677961719        4.9515229886      -10.4072748526
 C        -5.4626003034        4.6800843954      -12.2184856903
 C        -4.5371769394        5.6958426899      -11.5622628525
 C        -4.4560554489        5.4974803133      -10.0118009233
 O        -4.4087820477        4.3613161032       -9.6558258110
 C        -4.5639651793        6.6280178340       -8.9701904849
 C        -5.5197114092        6.1099348565       -7.7110867895
 O        -5.0508945716        5.2870545281       -6.9654622025
 C        -7.0047554824        6.6536968186       -7.6500798153
 C        -7.8413832538        6.0472194625       -6.4695515997
 C        -8.4672601658        4.6063225082       -6.8918804032
 O        -7.8943621350        3.9684767533       -7.7575873219
 C        -9.8180652812        4.1204699442       -6.1610241183
 C        -9.2843586727        3.3187296327       -4.8749817434
 O        -8.1352523321        3.3435286740       -4.4955490563
 C       -10.5048630392        2.7376352392       -4.0954956883
 C       -10.0220214304        1.4123039236       -3.4848026542
 C        -9.8937401173        0.3645685649       -4.5941259617
 O       -10.1911047972        0.5872041142       -5.7602131452
 C        -9.3207967979       -1.0095579864       -4.1193732452
 C        -7.8143055432       -0.8403351986       -4.5034480248
 O        -6.8956870443       -0.5608691891       -3.7619993718
 C        -7.4034730094       -1.0538943569       -5.9288782914
 C        -5.9133382995       -0.9967689485       -6.1704820351
 C        -5.5249282129        0.5578197247       -6.1775803262
 O        -6.2428700947        1.3875532271       -6.5772253425
 C        -3.9350446270        1.0264336970       -5.8984034902
 C        -3.3120209041        0.9803195572       -7.3825560854
 O        -3.7834667272        1.6761393341       -8.2477217212
 C        -2.2627076082       -0.0927835408       -7.7091763556
 C        -0.8850669643        0.1622427168       -7.0907835970
 C        -0.2271060176       -0.9595967495       -6.2932426236
 O        -0.8820557795       -1.9332104777       -5.9485179329
 C         1.3546315292       -0.8243146667       -5.8436259309
 C         2.0954547900       -2.1939499904       -6.3799743580
 O         3.0726343979       -2.0742714508       -7.1081823762
 C         1.5604174709       -3.5796691356       -6.1074503516
 C         2.6402750940       -4.7615200748       -6.2927501304
 C         2.9253937123       -4.9741533788       -7.7711428732
 O         1.9293860399       -5.0642718458       -8.5122310624
 C         4.4510524364       -4.8902450057       -8.4450713918
 C         4.7039199207       -6.3527362534       -8.9408342468
 O         4.2125798457       -6.8454408988       -9.9508145009
 C         5.3321551433       -7.3182663815       -7.8179679907
 C         5.0738154564       -8.7526350238       -7.8819142900
 C         3.4652788404       -8.9135165909       -7.7580726939
 O         2.7578260656       -7.9437334928       -7.5649213029
 C         2.8621173730      -10.2896266906       -7.6737084783
 C         2.2666403418      -10.6070649899       -9.0800135923
 O         2.8824483419      -11.0440286538      -10.0355667207
 C         0.7270886313      -10.1981928814       -9.3458304704
 C         0.5705520260      -10.0636790466      -10.8593100021
 C         1.2431091393       -8.7642333732      -11.2686128512
 O         1.0534632129       -7.7991445560      -10.5908546681
 C         2.0925564463       -8.7385077811      -12.7277636294
 C         2.2599613067       -7.2441286144      -13.2202401139
 O         3.1746364333       -6.5744746961      -12.7772679909
 C         1.1925976417       -6.8056392135      -14.2157958622
 C         1.1669567972       -5.3567511846      -14.4478770368
 C         0.4804787687       -4.4740685445      -13.2632596669
 O         0.7080791681       -4.6163299591      -12.0919628577
 C        -0.3940786515       -3.2407046865      -13.7239190645
 C        -1.6715258628       -3.8547079036      -14.2025456077
 O        -2.6667677385       -3.7191810416      -13.5833208245
 C        -1.7763445507       -4.7567894880      -15.4565857763
 C        -3.2029358322       -5.0265132031      -15.9006851375
 C        -3.7712496139       -3.9773601889      -16.8556728068
 O        -3.1532204221       -2.9616007576      -17.0367664117
 C        -5.2437698822       -3.8812641790      -17.5861668738
 C        -6.0131024918       -2.7492212504      -16.8811790820
 O        -6.1793271568       -2.7451813783      -15.6907572986
 C        -6.8482353207       -1.8429623404      -17.8209802322
 C        -7.0323299962       -0.3669889251      -17.3506188998
 C        -7.5877320737        0.5103279355      -18.4682554063
 O        -8.5420825252        0.1973324792      -19.1236747370
 C        -7.0452584579        2.0286995626      -18.6258337278
 C        -7.8378423779        2.8790843518      -17.4930219082
 O        -7.1822618264        3.2314065582      -16.5526340668
 C        -9.3789127503        2.8422087766      -17.5340337276
 C        -5.5761869420        2.1829671099      -18.4094203368
 C        -7.5430120489        2.5793362401      -20.0720212473
 C        -4.9958802613       -3.5392214209      -19.0858610944
 C        -6.1614921858       -5.1792312332      -17.3646775408
 C        -0.6735507640       -2.3249189382      -12.5759482617
 C         0.3497294386       -2.5022825686      -14.8344207028
 C         3.5034187031       -9.2906291127      -12.5516543936
 C         1.2576809598       -9.6041711855      -13.7609550351
 C         3.9486130238      -11.4234075934       -7.2438001528
 C         1.8420376037      -10.2997588951       -6.5547601384
 C         4.3447346435       -3.9885617808       -9.6760782110
 C         5.5702027295       -4.3492734237       -7.4587798366
 C         2.0323985538        0.3736231604       -6.5253864228
 C         1.3635200455       -0.7894101556       -4.3226760841
 C        -3.8348632797        2.4886940511       -5.3815348273
 C        -3.2838198236        0.0601369655       -4.9255443449
 C        -9.4416357115       -1.2696837550       -2.6379193519
 C       -10.0228181864       -2.1946058595       -4.9660496687
 C       -10.7431516723        5.3028966510       -5.7028367496
 C       -10.4626354255        3.0905486135       -7.1387469621
 C        -3.1086342448        6.8372286246       -8.4666403430
 C        -5.0836813691        8.0476422149       -9.3750961528
 C        -7.8497930542        2.9655832344      -13.1625500184
 C        -8.6101423401        2.7530908789      -10.8205837845
 H        -7.0273648106        0.5118708264      -12.9577319616
 H        -6.1520669892       -0.3748033282      -11.5722474625
 H        -5.2235799074        0.6342442154      -12.6984512912
 H        -5.7212571075        4.9240944759      -13.2010925803
 H        -4.8686363228        3.7671138878      -12.1961227094
 H        -4.6984780401        6.7121452131      -11.9166937938
 H        -3.5128050895        5.5164742777      -12.0207789580
 H        -7.3997460676        6.5001421100       -8.6689108533
 H        -7.1337044204        7.7601451767       -7.6381263002
 H        -8.6976489910        6.6425959666       -6.1272018260
 H        -7.1658095318        5.8224437357       -5.5920458677
 H       -11.3929668791        2.7476691822       -4.6976384973
 H       -10.5817987254        3.4777422527       -3.2666574951
 H       -10.7184501679        1.1453183636       -2.6660885292
 H        -9.1046239186        1.6322057814       -3.0183866883
 H        -7.9046582611       -0.2806198945       -6.5613197596
 H        -7.7881763415       -2.1066959465       -6.1792110590
 H        -5.7156497952       -1.3809511706       -7.1824589613
 H        -5.3877867015       -1.5301042738       -5.4390227924
 H        -2.1762186157       -0.2067241615       -8.7196491942
 H        -2.7794195711       -1.0193389840       -7.2619026554
 H        -0.8754405098        1.1331769619       -6.5334134610
 H        -0.1845184085        0.3142372321       -7.9588548983
 H         0.7036974195       -3.7333945541       -6.7321435519
 H         1.1844719826       -3.6513784170       -5.1112761158
 H         2.2568416437       -5.6843788477       -5.9454007664
 H         3.6149088458       -4.6475614340       -5.7481889631
 H         4.8601150904       -6.9367023125       -6.9013856190
 H         6.4356599469       -7.2387535957       -7.7762961075
 H         5.3433607792       -9.1994866940       -6.9556864818
 H         5.4177178237       -9.3063375621       -8.7390856661
 H         0.3788059740       -9.2388883603       -8.9002039009
 H        -0.0309496754      -10.8555439914       -8.9847155251
 H        -0.4769841766       -9.9974906597      -11.1733505670
 H         1.0034123274      -10.9761401800      -11.2456761887
 H         0.2728282894       -7.1669181902      -13.7337925534
 H         1.3452556413       -7.3687217395      -15.0834615943
 H         0.6664100451       -5.0263483738      -15.3585909283
 H         2.1982830650       -4.9471378234      -14.5351184100
 H        -1.3152405017       -5.7054131044      -15.1044897033
 H        -1.2391133334       -4.3323930626      -16.2583354296
 H        -3.8968044010       -5.1465014689      -15.0619036557
 H        -3.3078655194       -6.0438001494      -16.2894412721
 H        -7.7857721883       -2.2796615074      -17.7558429308
 H        -6.6178803786       -1.8093366142      -18.9132493325
 H        -6.0617714063        0.0525694990      -16.9279984437
 H        -7.8343415310       -0.3497637465      -16.5000471430
 H        -9.6850509205        3.0915280547      -18.5439357471
 H        -9.8440195548        3.4552953218      -16.7647985412
 H        -9.5800046033        1.7660577503      -17.3336118484
 H        -5.4669965999        2.0882895535      -17.3294801126
 H        -5.4139945613        3.2219630259      -18.6734878392
 H        -4.8710229106        1.4696652238      -18.9191067142
 H        -8.4333378597        2.2581088764      -20.5099037130
 H        -6.7813580017        2.2149385907      -20.8057121301
 H        -7.5880287118        3.6932707132      -20.1148775428
 H        -5.8833925123       -3.4181225805      -19.6795777881
 H        -4.4267700274       -4.4313999329      -19.5256884409
 H        -4.3703086457       -2.7007239315      -19.3334320261
 H        -6.6191751805       -5.2961260736      -16.4152305847
 H        -5.5596713699       -6.0609943316      -17.6174989838
 H        -6.9027056171       -5.2073628853      -18.0900156887
 H        -1.3482970737       -1.6329314486      -12.9747037893
 H         0.1645644412       -1.7515108989      -12.1740496180
 H        -1.2082033292       -2.7816802058      -11.7750849093
 H        -0.3079216806       -1.7295481367      -15.3625779284
 H         0.5718014491       -3.1670833837      -15.6677500407
 H         1.2974141200       -1.9851465124      -14.5482416331
 H         4.0769285573       -9.3736651668      -13.4351304132
 H         3.5869047763      -10.1634984213      -11.9637731488
 H         4.1555944760       -8.6094177988      -11.9329691174
 H         1.9756580670       -9.6886975315      -14.5861798594
 H         0.3546513918       -9.0374672093      -14.0823043146
 H         1.0456956497      -10.5577948741      -13.3225473171
 H         4.4570375264      -11.2216247035       -6.3356997820
 H         4.7249965564      -11.6177216913       -7.9566338930
 H         3.3691822424      -12.2416361503       -7.0437378716
 H         2.3343303712       -9.7440276404       -5.7538806154
 H         1.5532914936      -11.2581066519       -6.2280149840
 H         0.9737155060       -9.7461017437       -6.8363676718
 H         5.0966887389       -4.3471852171      -10.3691681764
 H         4.3103070940       -2.9720182725       -9.3309463569
 H         3.3602157137       -4.0641816238      -10.1786226402
 H         5.5372614534       -4.7674384157       -6.5726023035
 H         5.3975076394       -3.2490872879       -7.2843681902
 H         6.4962396952       -4.5193186655       -7.9257997143
 H         1.8343226203        0.1868077005       -7.5206251038
 H         3.1350484837        0.2598156343       -6.5453636621
 H         1.7724277164        1.3130215064       -6.0489944497
 H         0.6000303852       -0.1397782302       -4.0582514531
 H         2.2503331641       -0.2528310687       -3.9538792132
 H         1.2792624926       -1.7322706228       -3.8055639085
 H        -4.3786154220        3.2557269861       -5.9134079175
 H        -2.8026603059        2.8428586476       -5.2503348644
 H        -4.3363230524        2.4971505855       -4.4388319733
 H        -4.0558944052       -0.2831802220       -4.2768903590
 H        -2.4877664965        0.4465064179       -4.2869874866
 H        -2.8128631820       -0.8186135441       -5.3172958863
 H       -10.3640761489       -1.0477318650       -2.1980231132
 H        -8.7621061192       -0.6557801414       -2.0344957760
 H        -9.0788377807       -2.2593103624       -2.3326383100
 H       -11.0244488875       -2.2460326047       -4.5366822428
 H        -9.5300295621       -3.1748710022       -4.9114719639
 H       -10.1876804756       -1.8971880227       -6.0080323132
 H       -11.5857996814        5.2592370597       -6.3950671036
 H       -10.3077302447        6.3161328643       -5.7476004297
 H       -11.2102277817        5.1502234147       -4.7805770394
 H        -9.6846709480        2.5680960088       -7.6421225662
 H       -11.0018010413        3.5010069189       -7.9076873099
 H       -11.0839736145        2.3078300266       -6.7147015058
 H        -2.5518659455        5.9600757031       -8.1290043430
 H        -3.2299176972        7.5313095857       -7.6660625116
 H        -2.5852979755        7.3045675645       -9.3047760070
 H        -5.9607886752        7.9782469474       -9.9672782241
 H        -4.1586414451        8.5636850105       -9.7074297856
 H        -5.4772598026        8.5474526814       -8.4522057463
 H        -6.9168812816        2.9682367469      -13.7073070804
 H        -8.3592539311        3.9099420295      -13.3400083773
 H        -8.3713966576        2.0907039974      -13.4687970062
 H        -9.3381724567        3.5089637528      -10.9367260781
 H        -8.2970347651        2.6636991022       -9.8150749335
 H        -9.1091819161        1.8351142060      -11.2494734037
 Na       -5.8592949308        2.9833775270       -8.1278427217
 Na        2.2517833620       -5.8920360529      -10.5668646749
