232

 C        -5.5494452506        1.0992228457      -12.3152118179
 C        -6.3932813030        1.9685838473      -11.4852460679
 O        -6.5028341879        1.7847293401      -10.2909390965
 C        -7.2637623914        3.1648912743      -12.0967552671
 C        -6.4638841098        4.4053301970      -11.5475720636
 O        -6.7372326868        4.9562119162      -10.4941152085
 C        -5.2306305116        5.0179606970      -12.3087368229
 C        -4.4611400638        5.9757497383      -11.3612186182
 C        -4.2377215896        5.6647961935       -9.9145865355
 O        -3.7986582735        4.5723912841       -9.6322151762
 C        -4.3438403822        6.6587065476       -8.7558376964
 C        -5.4122440006        5.9963296062       -7.7673062614
 O        -5.1348145019        4.9707546958       -7.1980189448
 C        -6.7793195237        6.6541481934       -7.6098153341
 C        -7.6074852678        5.9507715133       -6.5363277489
 C        -8.4508452743        4.6727229067       -6.9678190669
 O        -8.0280094958        3.9088225104       -7.8044684646
 C        -9.7005915011        4.2779429216       -6.0444947856
 C        -9.1087179545        3.5178189747       -4.8062662894
 O        -7.9617363994        3.4320811119       -4.5386205636
 C       -10.1931071082        2.7946387092       -3.7640042395
 C        -9.6884330420        1.5526658380       -3.1448683310
 C        -9.4344728650        0.5437451834       -4.2818029737
 O        -9.4231409017        0.8653938875       -5.4621315197
 C        -9.1114199220       -0.9609650133       -3.9336397512
 C        -7.5775320957       -1.1807733585       -4.2526186876
 O        -6.6654965901       -1.2564475063       -3.4563654049
 C        -7.3215376282       -1.1716136612       -5.7398899790
 C        -5.8459326870       -0.9403960804       -6.0411476552
 C        -5.4934198894        0.4430388275       -6.4927990297
 O        -6.2664601080        1.0468486751       -7.2033736839
 C        -4.0878085991        1.0028509150       -6.1913443083
 C        -3.3606073115        0.8842727027       -7.6533749114
 O        -3.6271295865        1.5886600212       -8.5553819858
 C        -2.3389030305       -0.2000495868       -7.9618863700
 C        -0.9026147260        0.0479000048       -7.3600902662
 C        -0.2932767910       -1.0422760542       -6.4055460226
 O        -0.8393844707       -2.0612324302       -6.1081403611
 C         1.1807347002       -0.8121372052       -5.7837943557
 C         1.9301430980       -1.9344253829       -6.4855321935
 O         2.7349753255       -1.8747197512       -7.4492928206
 C         1.5690862402       -3.3905315424       -6.1099115554
 C         2.5215710912       -4.4537653088       -6.4821930725
 C         2.9005042843       -4.4663603107       -7.9419850606
 O         2.1061705886       -4.4323968458       -8.8466900703
 C         4.5562849782       -4.6762552310       -8.1995704341
 C         4.5907561808       -6.2272176810       -8.4760506739
 O         4.2229052208       -6.6264997365       -9.5638787374
 C         4.9298371015       -7.2139290590       -7.3363939594
 C         4.6827658483       -8.6598810982       -7.5802757166
 C         3.1926569997       -8.9167425361       -7.1519200889
 O         2.3957079567       -8.0771134916       -6.7695088875
 C         2.7468279073      -10.4957572557       -7.3108779724
 C         2.3767635189      -10.4860367718       -8.9158841318
 O         3.2944551076      -10.7242587179       -9.6673027922
 C         0.9214989637      -10.4021157957       -9.2354945485
 C         0.8073754475      -10.2985544429      -10.7518371905
 C         1.5153673870       -8.9655349646      -11.2949588223
 O         1.5601172693       -7.9741001227      -10.6036153468
 C         2.0646160067       -9.0595117846      -12.9520879262
 C         2.0777546925       -7.5356133953      -13.4057649134
 O         2.7736909650       -6.7053850774      -12.9100444324
 C         0.6957723735       -6.9510048110      -14.0772894299
 C         0.8414735566       -5.5005195965      -14.5621127554
 C         0.3352909147       -4.4823223278      -13.4713956733
 O         0.8513052158       -4.4287938339      -12.3876616782
 C        -0.7078442211       -3.3576055645      -13.9562321039
 C        -2.1345117772       -3.9071073822      -14.3243867553
 O        -3.1480362162       -3.4013136082      -13.9842272469
 C        -2.1017976197       -5.1302112670      -15.2945943312
 C        -3.4960585767       -5.4067247498      -15.8744719053
 C        -3.8101602721       -4.3013732388      -16.8161959528
 O        -2.9920976191       -3.4104110791      -17.0635143877
 C        -5.2637064423       -4.1261179425      -17.3933298519
 C        -6.0463969735       -2.7560850306      -17.1520929849
 O        -6.5657289814       -2.5320221561      -16.1094911349
 C        -6.1053460246       -1.5995712311      -18.1997641501
 C        -6.5962889030       -0.3114750531      -17.4676551042
 C        -7.7591372061        0.4121848184      -18.1124625860
 O        -8.8760110510       -0.0083616969      -18.1856458320
 C        -7.5296663467        1.8608581087      -18.7097446531
 C        -8.0227410343        3.0037577992      -17.6701942164
 O        -7.2556948518        3.7283740267      -17.1189151090
 C        -9.5417086948        2.9446832879      -17.2179995376
 C        -5.9923389002        2.3197451397      -18.8772319183
 C        -8.1225804319        1.9173769361      -20.1467028951
 C        -5.2118334326       -4.3893377644      -18.9517643495
 C        -6.1633492330       -5.2887187747      -16.7744276176
 C        -0.7742610470       -2.3145198037      -12.8160496589
 C        -0.1603604673       -2.6033958054      -15.2213598858
 C         3.4985975599       -9.5951573432      -12.9389045034
 C         1.0035531706       -9.8845233437      -13.7451013561
 C         3.8952004218      -11.4050224418       -6.9600912863
 C         1.4866813010      -10.8491728111       -6.4997502470
 C         5.0148824219       -3.7448086124       -9.3383482098
 C         5.5351542741       -4.4527766895       -7.0795330398
 C         1.8052881998        0.5328714642       -6.0371991464
 C         0.9382149238       -1.0587828617       -4.2151704295
 C        -4.2411627754        2.4855268547       -5.7321781978
 C        -3.3530172457        0.2063438200       -5.0946033512
 C        -9.3755441306       -1.1834388966       -2.4918710252
 C       -10.0208719326       -1.8739067931       -4.7403845863
 C       -10.5628238502        5.5709750155       -5.5450325977
 C       -10.4814798348        3.3141276396       -6.9111998638
 C        -2.9650962258        6.5047978618       -7.9215546893
 C        -4.6279436542        8.1119041234       -9.1391320564
 C        -7.3525213194        3.1722586654      -13.6623624780
 C        -8.6182007147        3.0866149556      -11.4815736823
 H        -6.1830410315        0.4153040962      -12.9325929086
 H        -5.0551544990        0.4125693374      -11.5992760113
 H        -4.8249565895        1.6689822638      -12.9177695660
 H        -5.6704796260        5.6373352086      -13.1396072468
 H        -4.6163222163        4.3309205148      -12.8168745724
 H        -4.8477395117        7.0154772981      -11.4512139366
 H        -3.4973362404        5.8988767003      -11.8481344098
 H        -7.1683804443        6.6018350146       -8.6384830454
 H        -6.6453427536        7.6901637695       -7.2328120842
 H        -8.3893104649        6.4795285162       -5.9658022967
 H        -6.8724420286        5.4455535575       -5.9385607447
 H       -11.1234393389        2.6520527307       -4.3518863048
 H       -10.3926338203        3.5564939727       -3.0219548311
 H       -10.3134735813        1.2487172647       -2.2838052315
 H        -8.6845972601        1.8148922920       -2.7385613464
 H        -7.9704136317       -0.5066246016       -6.3591730691
 H        -7.4203200221       -2.2338325121       -5.9832082330
 H        -5.5077260563       -1.5836231779       -6.8377138966
 H        -5.1768740752       -1.2031428743       -5.2005770540
 H        -2.2211214469       -0.2559986407       -9.0185466316
 H        -2.8198571191       -1.1832564390       -7.6192715543
 H        -0.7734804455        1.0505142801       -6.9271980928
 H        -0.2376885273        0.1751901797       -8.2091272977
 H         0.6921544389       -3.6668464076       -6.6149218292
 H         1.3417816010       -3.5578755252       -5.0751193012
 H         2.1410350094       -5.5376810799       -6.2630674356
 H         3.4652243270       -4.2878100790       -6.0022424062
 H         4.2743397134       -6.9495511515       -6.5169954241
 H         6.0078873338       -7.1513103900       -7.2494168661
 H         5.2619195556       -9.2639945674       -6.9072462828
 H         4.7783351666       -9.0337577314       -8.5634328320
 H         0.4780240768       -9.6596441695       -8.5906303972
 H         0.6474605561      -11.4555179665       -8.8442140209
 H        -0.2647416697      -10.3982890645      -11.0581502694
 H         1.2588595679      -11.2197123446      -11.1357808662
 H        -0.0563644824       -7.1146098497      -13.3516463299
 H         0.3727458452       -7.5032647984      -14.9910072721
 H         0.3833228222       -5.3309231915      -15.4411246548
 H         1.8563889644       -5.2224720717      -14.7905397548
 H        -1.7713963095       -5.9716345275      -14.7628649542
 H        -1.3046398827       -4.8374652777      -16.0603689233
 H        -4.2075059669       -5.3154985295      -15.0436661691
 H        -3.5967340001       -6.4931322515      -16.2119494563
 H        -6.8829690960       -1.9153535836      -18.9869524134
 H        -5.2486599017       -1.4413258707      -18.8042768902
 H        -5.7591411723        0.3840058911      -17.3249707921
 H        -6.7962304190       -0.5625242634      -16.4629883423
 H        -9.7124219144        3.8357901804      -16.5626152035
 H        -9.5417923797        2.0095446306      -16.6809984246
 H       -10.2549885658        2.9716108157      -17.9887059633
 H        -5.5141504753        2.3673830924      -17.8968500611
 H        -5.8401875875        3.2929981571      -19.3756050870
 H        -5.4886116295        1.4769383469      -19.3804323123
 H        -9.0641969264        1.3987188560      -20.1032902868
 H        -7.5155032278        1.5727271642      -20.9382525711
 H        -8.3408571819        2.9566273570      -20.4518141322
 H        -6.1119478028       -4.2243050611      -19.4241651239
 H        -4.9996993667       -5.3898155740      -19.1974208727
 H        -4.4123631951       -3.7651514580      -19.4152203936
 H        -6.3278577588       -5.1993580418      -15.7176879700
 H        -5.6821206268       -6.2149549596      -16.9390151695
 H        -7.1279592455       -5.2943552353      -17.2896285197
 H        -1.5518287235       -1.5941293324      -13.0740099996
 H         0.0976625530       -1.7357616352      -12.6694765472
 H        -1.0964169281       -2.7046562314      -11.8774640653
 H        -0.9136958399       -1.9592670860      -15.5711872791
 H         0.1037764251       -3.2874443076      -16.0457617771
 H         0.6336781511       -1.8529230627      -14.9914256269
 H         3.8208912748       -9.8547807853      -13.9332949589
 H         3.8429888274      -10.3734174522      -12.3082008765
 H         4.2075203019       -8.7675991392      -12.7133258360
 H         1.2827642045       -9.7985915914      -14.8301274955
 H         0.0204488562       -9.3834954051      -13.4445967005
 H         1.0129401091      -10.9642094992      -13.4053349234
 H         4.2529313731      -11.0612674897       -6.0459227946
 H         4.6022866389      -11.4544443641       -7.7602975812
 H         3.6666461926      -12.4855257647       -6.9111739290
 H         1.6477736035      -10.7131045108       -5.4277616964
 H         1.2305254888      -11.8811187955       -6.6174432955
 H         0.6435774458      -10.2236730121       -6.7218972263
 H         6.1053060553       -3.8648542242       -9.4949390941
 H         4.7861916287       -2.7322099080       -8.9621011496
 H         4.4862386080       -4.1139902246      -10.2049215648
 H         5.3094310228       -5.0054310273       -6.2427150988
 H         5.5915758784       -3.3135361823       -6.8676501460
 H         6.5678508487       -4.7434818203       -7.3527297755
 H         2.0564422579        0.4897147749       -7.0704896998
 H         2.6275455993        0.8169071683       -5.3110418873
 H         1.0023654845        1.3253933599       -5.9603570483
 H         0.3194773236       -0.2899733623       -3.7582497518
 H         1.8531754839       -1.1310260922       -3.7636535056
 H         0.4598939241       -2.0282574377       -4.2057353022
 H        -3.9390139376        2.7279956587       -4.7192165556
 H        -5.3260445950        2.7124535123       -5.6911548950
 H        -3.7660126964        3.1662079245       -6.4305617073
 H        -3.8993861857        0.0006300745       -4.1774013290
 H        -2.5268719441        0.7242140211       -4.7481413546
 H        -3.0140536064       -0.7790559706       -5.4223567754
 H       -10.4016900485       -0.9831810991       -2.2015786655
 H        -8.7286065893       -0.5465377346       -1.8960280400
 H        -9.2517730304       -2.1544002573       -2.2073322692
 H       -10.8948810041       -2.1517422864       -4.1249910368
 H        -9.4666736337       -2.7717286074       -4.9248015739
 H       -10.3270960790       -1.4952283146       -5.7381038695
 H        -9.9307387829        6.4621281200       -5.6283214220
 H       -10.7487534586        5.3962993914       -4.5491160062
 H       -11.5385994088        5.6491626527       -6.0112710272
 H        -9.8026689698        2.6999312701       -7.4867490509
 H       -11.2708788473        3.7296863734       -7.5261201703
 H       -11.0644411700        2.6440676006       -6.3034078571
 H        -2.6736543209        5.4637806974       -8.1564189012
 H        -2.9153936590        6.7881332591       -6.8723560002
 H        -2.1845820017        7.1450445892       -8.4588657813
 H        -5.4247003982        8.1553532766       -9.9307590256
 H        -3.8373542676        8.6077412970       -9.6037421756
 H        -4.9059227687        8.5607057475       -8.2285452404
 H        -6.4351465745        3.5364883893      -14.0883251898
 H        -8.1104939975        3.8942499367      -13.9720830122
 H        -7.6332589886        2.1878495055      -14.0556492212
 H        -8.9642010536        4.1126597646      -11.3668494557
 H        -8.4308900528        2.7743010161      -10.4667722035
 H        -9.2569844723        2.5090780503      -12.0728636591
 Na       -5.8649950420        3.0111010230       -8.4037486933
 Na        2.2345554958       -5.7038012487      -10.7632861176
