232

 C       -20.7601515935       -7.8989298447       -4.4721794671
 C       -20.4829626700       -6.5094935152       -3.9118961216
 O       -19.8756959992       -6.3306820539       -2.8924154146
 C       -21.3041005476       -5.3162798628       -4.5818813589
 C       -20.4096356086       -4.0145937368       -4.6046017803
 O       -19.8920928455       -3.6229360522       -3.5609682353
 C       -20.0411407663       -3.3547036202       -5.9057982242
 C       -18.6507950112       -3.9510811759       -6.4392275642
 C       -17.5959667106       -4.0649387325       -5.3496002844
 O       -17.6559789499       -5.0379522358       -4.6112966317
 C       -16.4071722426       -3.0318774580       -5.1335401115
 C       -16.3521299139       -2.8495024457       -3.4855108643
 O       -17.1334542156       -2.1798509502       -2.8495869780
 C       -15.1038686320       -3.5152148768       -2.7906621306
 C       -14.9176751162       -3.2417313631       -1.2723274815
 C       -15.5292443798       -4.4157952908       -0.4616254086
 O       -16.5201119162       -4.9923065374       -0.8506601048
 C       -14.7822724943       -4.9426906641        0.8020927547
 C       -13.3259604801       -5.5167950785        0.3597972494
 O       -12.3119861111       -5.1535077100        0.9363426326
 C       -13.3356139012       -6.5209784805       -0.8288089206
 C       -12.1770749773       -6.4322837531       -1.8140218504
 C       -12.2600305420       -7.2875022266       -3.0211663389
 O       -13.0026380404       -7.0479350415       -3.9571773053
 C       -11.2182189131       -8.5010140799       -3.0571036279
 C        -9.7496139623       -7.9907346578       -2.9177561883
 O        -9.4167590272       -7.5692389867       -1.8288602105
 C        -8.8409433835       -7.7454654547       -4.1112177115
 C        -7.4970463875       -7.0189347427       -3.7822049146
 C        -7.6270111460       -5.5073821623       -3.8032964691
 O        -8.7585489477       -4.9745061659       -3.7703950281
 C        -6.3267171555       -4.6937082544       -3.8176800959
 C        -5.4817698813       -5.2231628965       -5.1118859810
 O        -6.0066795502       -6.0119306620       -5.8533593902
 C        -4.2147879249       -4.4373248749       -5.3479500474
 C        -3.4090710341       -5.0049987951       -6.5435837132
 C        -2.5386791194       -4.1027230840       -7.3547251751
 O        -3.0444173786       -3.4987640732       -8.3163138600
 C        -0.9710642515       -4.1635981961       -7.2633852781
 C        -0.3089029497       -4.8790891139       -8.5005057323
 O         0.6657647321       -5.6050900508       -8.4189690630
 C        -1.0167091707       -4.7298374530       -9.8821586753
 C        -0.4357059259       -5.5734927255      -10.9710572117
 C         0.5168969468       -4.8702152950      -11.8526359055
 O         0.2127802803       -3.7687460184      -12.1493374663
 C         2.0121531879       -5.3679055551      -12.1553091219
 C         2.4448797373       -4.6048104524      -13.4670930330
 O         2.6569066871       -5.2237011909      -14.5150697955
 C         2.7024362211       -3.1405280315      -13.2258370076
 C         3.3103882594       -2.4142849870      -14.4369830816
 C         3.0496732731       -0.9464781757      -14.0507210359
 O         1.9700234435       -0.3718758245      -14.3522795084
 C         4.0950399812       -0.0833033155      -13.1719172214
 C         4.4037933232        1.0534656715      -14.1018023452
 O         5.4518558893        0.9697311062      -14.7446276262
 C         3.5953572932        2.3456477296      -14.1103991094
 C         3.9676416230        3.3514763674      -12.8824849723
 C         5.3303832513        4.0621066691      -13.2963284240
 O         5.8434807616        3.7036258130      -14.3300044060
 C         6.0685744784        5.2671237530      -12.5722664263
 C         6.2543961855        6.4182339891      -13.7454861084
 O         5.2057516075        6.8077335435      -14.2082393880
 C         7.5585452280        7.0088381029      -14.1485278432
 C         7.4894357789        7.3038069002      -15.6989657515
 C         7.1091164429        6.1204019827      -16.6307793221
 O         7.2820125141        5.0122144560      -16.2459572361
 C         6.5687088862        6.4977021600      -18.1201102486
 C         7.8563131614        6.1375957118      -19.0590903366
 O         8.5612215038        5.1792965208      -18.7005338506
 C         8.3647926202        7.0611796648      -20.1561273940
 C         9.2656552473        6.1991672595      -21.0134450434
 C         8.3917063726        5.3449068100      -21.9764450320
 O         7.3405689858        5.7104583184      -22.4458926996
 C         8.9571931223        3.9169545363      -22.4549432642
 C         8.8436163139        2.9542901472      -21.2476381978
 O         7.7642845671        2.4416774357      -20.9364715366
 C         9.9599699227        2.7025478147      -20.2756697707
 C         9.6022242039        1.5372953400      -19.3375108824
 C         8.3464627489        1.6014757903      -18.4922185653
 O         8.3391615261        2.3428004497      -17.5693708201
 C         7.0989271298        0.6628121010      -18.8443231967
 C         5.7637682926        1.6654321365      -19.1518289769
 O         5.3171305978        2.2850562390      -18.2306493021
 C         4.8797311819        1.4783735279      -20.4155003854
 C         7.3502763595       -0.2915846338      -19.9929851038
 C         6.6868236030       -0.1250552016      -17.6340618748
 C         8.0615902442        3.3895669168      -23.5806917117
 C        10.3470437683        4.1705742364      -23.0678162487
 C         5.4211234251        5.4535168501      -18.5464567379
 C         5.8612292155        7.9301804057      -18.1271408191
 C         5.2279250019        5.6572074398      -11.3270208965
 C         7.4406762584        4.8677698036      -12.1606280375
 C         3.3999929551        0.2758205971      -11.6844008900
 C         5.4404239332       -0.7722026173      -12.8162680534
 C         2.8627250669       -5.0384235250      -10.8741689023
 C         2.2283189832       -6.9272803785      -12.5017201984
 C        -0.6259806174       -2.6116756312       -7.2287510170
 C        -0.5092086735       -4.8992868637       -5.9580350387
 C        -6.6063847751       -3.1528616548       -3.8295600257
 C        -5.5227500666       -5.1776901977       -2.5276934092
 C       -11.5274086177       -9.3243777566       -1.7958563420
 C       -11.4389276420       -9.5636375016       -4.1715554884
 C       -14.4752084353       -3.6775570695        1.7025812339
 C       -15.5743632847       -6.0004157463        1.6061376359
 C       -15.1309224685       -3.6032369832       -5.7916770666
 C       -16.8176367930       -1.6475596143       -5.6892278515
 C       -21.9710221733       -5.5722758909       -5.9932950075
 C       -22.3921511186       -5.1514835425       -3.5605851722
 H       -21.1110879107       -8.4051747933       -3.5966006903
 H       -19.8559547751       -8.2785502586       -4.8995254445
 H       -21.4582686514       -7.9452244627       -5.2060934272
 H       -19.9290309988       -2.2641876170       -5.8668687911
 H       -20.8668473219       -3.5379041092       -6.6599033909
 H       -18.3012406164       -3.4114218717       -7.3345233589
 H       -18.8242954109       -4.9784123144       -6.7705656101
 H       -14.2564141871       -3.1185818148       -3.3612995360
 H       -15.1086759372       -4.5708294791       -3.0312214000
 H       -15.4528314381       -2.3730473331       -0.9321050700
 H       -13.8687360588       -3.0952846053       -0.9121069596
 H       -14.3397197445       -6.4973396928       -1.3128741098
 H       -13.2584800308       -7.4743213594       -0.2812273343
 H       -11.3443731851       -6.6880164031       -1.1658040172
 H       -11.8941536989       -5.3554231813       -2.0189175777
 H        -9.4526664709       -7.0939005202       -4.7729028649
 H        -8.5946561719       -8.6852936866       -4.6818794344
 H        -6.6875116591       -7.3112252056       -4.5213181308
 H        -7.2297399402       -7.3427821618       -2.7786409799
 H        -3.7092904924       -4.4323825654       -4.4374169420
 H        -4.6395432272       -3.5052697798       -5.5841067967
 H        -4.1060839730       -5.2801193988       -7.3598880553
 H        -2.8498446546       -5.8662388435       -6.1782392456
 H        -1.0000665549       -3.6099178024      -10.1341864614
 H        -2.0050982715       -5.0696696327       -9.8353869803
 H        -1.3120466644       -5.7143859717      -11.5628737423
 H        -0.1037838947       -6.5154961591      -10.5312208310
 H         3.4367691460       -3.0960279470      -12.4783440825
 H         1.8404157397       -2.6078593272      -12.9249146292
 H         2.8064952136       -2.6307074302      -15.3725337577
 H         4.4133156726       -2.5499306871      -14.6165836192
 H         2.4891325452        2.1276596035      -14.0546003058
 H         3.7745564586        3.0246269230      -14.9710213635
 H         4.0056501100        3.1350127223      -11.8378176815
 H         3.1157311999        4.0082525397      -12.8020220522
 H         8.5051021792        6.5031518433      -13.9881636355
 H         7.7184529281        7.9523511225      -13.5727184689
 H         8.5519534132        7.4757674870      -16.0156857637
 H         6.9390790979        8.1069267729      -15.8708404854
 H         9.0626065777        7.7756459361      -19.6844378058
 H         7.4885006820        7.4243009728      -20.6546622325
 H         9.8677572945        5.6098629916      -20.3258640346
 H         9.9478550127        6.8773878272      -21.6325454446
 H        10.3645701974        3.5898780261      -19.7490588382
 H        10.8605621167        2.5820144588      -20.8922854298
 H        10.3559453969        1.5404078082      -18.6066664579
 H         9.6090072964        0.6563452952      -20.0307050639
 H         4.5906868058        2.5494027329      -20.7358900356
 H         3.9520017918        1.0010347055      -20.1606627460
 H         5.2947973599        1.0280484181      -21.2894817805
 H         6.5006467799       -0.8592758229      -20.3379028179
 H         8.0514391347       -0.9950699833      -19.7924275318
 H         7.6956284533        0.2473937495      -20.8764532958
 H         7.0236515431       -1.2041180949      -17.7554115019
 H         5.6139763330       -0.0856901769      -17.2981212985
 H         7.2779402627        0.2487732762      -16.7880080398
 H         8.4991276038        2.4552067520      -23.9920042304
 H         8.1903852596        4.1924284653      -24.3600992017
 H         7.0599187593        3.0682508238      -23.2266763326
 H        10.8269494627        3.2230516634      -23.3801992704
 H        10.9322121048        4.8358679694      -22.3869234679
 H        10.0979748296        4.8060548910      -23.9991782193
 H         4.5195895100        5.7026241878      -17.9428918413
 H         5.7772524371        4.4874654125      -18.2486165646
 H         5.2353224266        5.3692143942      -19.6073324244
 H         6.5873803166        8.7520908277      -18.0113734348
 H         5.2825805957        7.8870263907      -17.2035974424
 H         5.1710731173        8.1460075465      -18.9585834239
 H         5.7210732789        6.5595448455      -11.0021101020
 H         5.2933771682        5.0140330032      -10.4957020231
 H         4.2424334057        6.0974103730      -11.4996123891
 H         7.3759865603        4.1949670616      -11.3430590261
 H         8.0587035901        5.7004697576      -11.8925260237
 H         7.9299154744        4.2744459499      -12.9152213182
 H         4.2083084802        0.7110523255      -11.0607544068
 H         3.0444936331       -0.6245689592      -11.2414445006
 H         2.6050257090        0.8663085661      -11.8128284439
 H         5.5316585538       -1.4267495449      -11.9073029193
 H         6.0667295381        0.0187673702      -12.5695558656
 H         5.7291464309       -1.2194453356      -13.7512330540
 H         2.6479086294       -5.8973955482      -10.2677052455
 H         2.4818420905       -4.1626758968      -10.4300523271
 H         3.9309416613       -5.0303479521      -11.0534576002
 H         2.5024014564       -7.5178982819      -11.6206538201
 H         3.0808555456       -6.9899821156      -13.1230230889
 H         1.4823267153       -7.4312157058      -13.0989735627
 H        -1.2455654080       -2.2932292917       -6.3730653299
 H        -1.0731147796       -2.1890389680       -8.1165467297
 H         0.3896428076       -2.2448696389       -7.0655678823
 H        -0.7300442163       -5.9912754095       -6.0948504758
 H        -1.0359701528       -4.5786363546       -5.0667230797
 H         0.5035558927       -4.7875255546       -5.6345170961
 H        -6.8672479316       -2.9415186727       -4.9142001384
 H        -5.8423225270       -2.3588796751       -3.5049344097
 H        -7.4716142318       -2.9617113248       -3.2089536738
 H        -6.1294348451       -5.0925828934       -1.6318021114
 H        -4.5961967098       -4.5998133458       -2.4560473852
 H        -5.2968548860       -6.2102653646       -2.6396736111
 H       -12.5448888987       -9.4706519485       -1.6278549112
 H       -11.0840796424       -8.7609061571       -0.9221668779
 H       -11.0279296935      -10.3278758309       -1.7538205213
 H       -12.5217332012       -9.8343195488       -4.1361703052
 H       -10.9805423748      -10.5026416658       -3.9497401161
 H       -10.9745592179       -9.3706836244       -5.1093343619
 H       -15.4029066946       -3.4585334783        2.1725965286
 H       -14.1287005414       -2.7369649936        1.1105791488
 H       -13.8439738810       -3.9278331742        2.5717383247
 H       -15.6940790323       -5.7949086880        2.7032671034
 H       -14.9164533462       -6.8774339405        1.4848652660
 H       -16.6367171338       -6.1628129810        1.1208899402
 H       -14.8928703969       -4.6107960583       -5.5759207910
 H       -14.3059544704       -2.9506311218       -5.4157413192
 H       -15.2062399279       -3.4799958514       -6.8376713533
 H       -17.6395207153       -1.2445260480       -5.1250889073
 H       -16.9708143226       -1.6610398064       -6.7612865753
 H       -15.9759619507       -1.0609960047       -5.6216494083
 H       -21.1744295484       -5.7376706367       -6.6944689149
 H       -22.6643382380       -4.7137311124       -6.3353965451
 H       -22.5088020032       -6.5810263471       -5.8910040923
 H       -23.3314065255       -5.0474478034       -4.0662551194
 H       -22.2079374334       -4.3992395622       -2.8327643672
 H       -22.5124314692       -6.0154768240       -2.9333415288
 Na      -18.2473126060       -4.7861980402       -2.3846174173
 Na        6.6524672485        2.4697525250      -16.2447099408
