232

 C        -5.5036566383        1.1550078510      -12.7822245030
 C        -6.2370043526        2.1013832268      -11.8437441424
 O        -6.3830865794        1.6229714083      -10.7156977100
 C        -6.9038428619        3.3796865018      -12.3652527656
 C        -6.2262898351        4.4771158496      -11.5797408893
 O        -6.5133724602        4.8151852610      -10.4723187152
 C        -5.0454118360        5.1969806759      -12.2414227107
 C        -4.5158692329        6.2792586011      -11.4078924754
 C        -4.2164903377        5.8182251072       -9.9745174332
 O        -3.9132080937        4.6416689102       -9.8296190739
 C        -4.2334952864        6.7125806656       -8.6545740455
 C        -5.3178337047        5.9579645726       -7.7572478354
 O        -4.9873774764        5.0111798561       -7.0944480186
 C        -6.6132837157        6.5751428788       -7.5970507672
 C        -7.4314875985        6.0132436912       -6.4378567617
 C        -8.3887533031        4.8015415742       -6.9519901842
 O        -8.0805266801        4.0669966726       -7.8785354347
 C        -9.5695175517        4.3965841054       -6.0237680572
 C        -8.9395313234        3.6821406485       -4.7603567818
 O        -7.7540212235        3.7361091027       -4.5891856080
 C        -9.7988530214        3.0187933413       -3.6241542237
 C        -9.4059599353        1.6654754807       -3.0577402655
 C        -9.2598617129        0.6223693408       -4.1440054632
 O        -9.4787805633        0.8667577292       -5.3195867092
 C        -9.0714598202       -0.9183012525       -3.7218663278
 C        -7.6359490156       -1.3713700471       -4.2451078559
 O        -6.7231673124       -1.4248140304       -3.4440695410
 C        -7.3585972727       -1.3234977390       -5.7664328345
 C        -5.8396713617       -1.1942358196       -6.0363058886
 C        -5.3305887391        0.1685652711       -6.5762944207
 O        -6.1481039173        0.8695962186       -7.1101545777
 C        -3.9433726436        0.8484445340       -6.2766794188
 C        -3.3592418431        1.0047869480       -7.6484959449
 O        -3.8074871581        1.8598589602       -8.3504818403
 C        -2.3021771189        0.0557324444       -8.2418738595
 C        -0.9168999076        0.2275351281       -7.5287356720
 C        -0.5677360944       -0.8537252859       -6.5722876859
 O        -1.2778090316       -1.7804614308       -6.2213652819
 C         0.7982912129       -0.7387750474       -5.9409738142
 C         1.6140628409       -2.0449219748       -6.4701069093
 O         2.7507775976       -1.8231906956       -6.8859135301
 C         1.0955135786       -3.4921717805       -6.4090979468
 C         2.3071337251       -4.3628825258       -6.6413121425
 C         2.9459595888       -4.2524521826       -7.9542819169
 O         2.2518669228       -4.2982243992       -8.9664523371
 C         4.4961243542       -4.6347897251       -8.1642136131
 C         4.4171838571       -6.2434453207       -8.3471969155
 O         3.8509066766       -6.7560782999       -9.3462885278
 C         4.9895581157       -7.1410663994       -7.2077553369
 C         4.5937417041       -8.5610538839       -7.4573183259
 C         3.3026483821       -9.0729265901       -6.7473942463
 O         2.6630409877       -8.1811321030       -6.1793993358
 C         2.7286832986      -10.5588438619       -6.9968484419
 C         2.4665042772      -10.6249870202       -8.6548801969
 O         3.4562931485      -10.7290222179       -9.3358855215
 C         1.0537244966      -10.3770018233       -9.2020328902
 C         1.1759515177      -10.4430500121      -10.7082191886
 C         1.5114208839       -9.0380165041      -11.4804393151
 O         1.1612865884       -7.9662887689      -10.9395593832
 C         1.8827884962       -9.0380298923      -12.9251267284
 C         2.1704051412       -7.4756232574      -13.3463212639
 O         3.1577758907       -6.8822288193      -13.0576306432
 C         1.1528868738       -6.8331492927      -14.3250689457
 C         1.3605402520       -5.2518950635      -14.3729436498
 C         0.3019235269       -4.4494963322      -13.4767905958
 O         0.4349588103       -4.7511123031      -12.2932113986
 C        -0.6210387519       -3.3949547893      -13.9933073058
 C        -2.1626446556       -4.0722794551      -14.1407826313
 O        -3.0326013127       -3.6592868025      -13.3711132846
 C        -2.4634451326       -5.1873168486      -15.1467990628
 C        -3.9538936908       -5.0496695240      -15.4866906405
 C        -4.2585075704       -4.4460252072      -16.9249032696
 O        -3.3174074032       -4.0011490574      -17.5352044581
 C        -5.7319597290       -4.2836222359      -17.5193577209
 C        -6.1722125558       -2.8043921215      -17.0012708363
 O        -6.5194485012       -2.7444816981      -15.8532994886
 C        -5.9666572046       -1.5879688040      -17.9370134591
 C        -6.2083115430       -0.1123456688      -17.4568128689
 C        -7.5150316211        0.4007835561      -18.0735445286
 O        -8.5276152116       -0.2562451327      -17.9216536042
 C        -7.6100117025        1.8014585877      -18.8486462562
 C        -8.1110764635        2.8993978158      -17.6697952273
 O        -7.3343930510        3.6085222948      -17.0841527880
 C        -9.6344491948        2.9262759122      -17.4355205886
 C        -6.3331037213        2.3062985310      -19.4490765826
 C        -8.6874968680        1.6945109860      -19.9920298411
 C        -5.7222413323       -4.2105606362      -19.0111131385
 C        -6.6535906886       -5.3483756667      -16.9966881321
 C        -0.7248084717       -2.2612512517      -13.0214474806
 C        -0.0712453211       -2.8573441669      -15.3790391240
 C         3.2500251801       -9.7770698730      -13.0364787165
 C         0.8719716325       -9.6539128442      -13.9734468863
 C         3.8842741395      -11.5759679598       -6.6138566469
 C         1.4743632533      -10.8382995437       -6.2055466045
 C         4.9887536098       -3.9420072374       -9.5425935248
 C         5.5960038022       -4.1777237153       -7.1355331952
 C         1.6468237705        0.5289353460       -6.1578825510
 C         0.7277945283       -1.0803951401       -4.4233677619
 C        -4.2020875335        2.2852491847       -5.5808403565
 C        -3.2930102221        0.0378902236       -5.2388705708
 C        -9.2125984430       -1.1392027304       -2.1796376069
 C       -10.1984098234       -1.7600787141       -4.3754109364
 C       -10.4564780614        5.5623776649       -5.5869688715
 C       -10.3593613790        3.3344408430       -6.7752018439
 C        -2.8941326111        6.3752510985       -7.9501145752
 C        -4.5352022245        8.1733803624       -8.9326261385
 C        -6.8951467099        3.7212566613      -13.8843927690
 C        -8.4020540462        3.2955113677      -11.8090703337
 H        -6.1642220320        0.9398476428      -13.6889806241
 H        -5.2826065760        0.2066317479      -12.2660321398
 H        -4.5821326788        1.6384614492      -13.1123496844
 H        -5.4324712538        5.6539588421      -13.1614345191
 H        -4.3730798826        4.5045664946      -12.6029387805
 H        -5.2163229853        7.1523980903      -11.4445460019
 H        -3.4998272088        6.4089012583      -11.8240328266
 H        -7.1818882506        6.4337189534       -8.5089523518
 H        -6.5595579670        7.6054207968       -7.2690318250
 H        -8.2333411780        6.7818381178       -6.1169718620
 H        -6.9874910203        5.4487422446       -5.6081989199
 H       -10.8203198508        2.9614538776       -4.0469526228
 H        -9.8563193992        3.7536942949       -2.8391183387
 H       -10.2908576344        1.5031309074       -2.3978685194
 H        -8.5632148533        1.5605114030       -2.4104833029
 H        -7.9638921206       -0.4826567707       -6.2206079776
 H        -7.5440910878       -2.3117372139       -6.2306340070
 H        -5.3762533544       -1.9591650871       -6.5828873260
 H        -5.3348718329       -1.3098159412       -5.0969974769
 H        -2.3087820621        0.1996904855       -9.2486329711
 H        -2.6425576159       -1.0623712707       -8.0002938364
 H        -0.8555660369        1.2397457783       -7.0464391946
 H        -0.0659849440        0.2548616012       -8.2554900914
 H         0.3336608839       -3.6063838976       -7.0872176417
 H         0.6977768478       -3.7629253310       -5.4555105058
 H         2.0348429157       -5.4924282781       -6.6598747265
 H         3.1103387509       -4.1567897702       -5.9462534636
 H         4.5271427223       -6.7498576134       -6.3028937570
 H         6.0695194825       -7.1324005080       -7.3560515196
 H         5.3842900281       -9.2784027786       -7.3420098124
 H         4.3594849659       -8.6651855747       -8.4808281696
 H         0.8513604554       -9.4160149827       -8.8797592806
 H         0.4528752618      -11.1735437080       -8.6669753136
 H         0.1364865323      -10.7542722333      -11.0108221450
 H         1.8094431959      -11.2324750114      -11.0519609558
 H         0.1241557548       -7.0572638673      -14.2663144912
 H         1.5777073452       -7.2262059777      -15.2921204259
 H         1.3977282383       -4.8825651607      -15.3260603861
 H         2.3352880218       -5.0120568315      -13.9533464569
 H        -2.2398225262       -6.0586847300      -14.6117882958
 H        -1.7928792780       -5.1839716845      -16.0915929898
 H        -4.4559095604       -4.3999711680      -14.8075911513
 H        -4.3736704556       -6.1192945947      -15.4257743165
 H        -6.6941537692       -1.7351181348      -18.7813011067
 H        -5.0486664013       -1.6791929277      -18.4186885446
 H        -5.2546075474        0.4990846773      -17.7573230427
 H        -6.1746618394       -0.1036339088      -16.3435798225
 H        -9.8232456365        3.2213532792      -16.3681852159
 H        -9.8878295130        1.8918617746      -17.6006706118
 H       -10.0856362515        3.6646480145      -18.0777636810
 H        -5.6272408819        2.5370482881      -18.6587452929
 H        -6.5299087048        3.2287069590      -20.0141648021
 H        -5.8716813785        1.5701631814      -20.1975434223
 H        -9.6690978683        1.4147234071      -19.7227337916
 H        -8.2582460537        1.0736530189      -20.8061537300
 H        -8.7536751576        2.7557908243      -20.4788984329
 H        -6.7116393917       -3.9977822502      -19.3925212998
 H        -5.6097172041       -5.2832866870      -19.3814989887
 H        -4.9850371697       -3.5256647998      -19.4400367629
 H        -6.9608711799       -5.0812493872      -15.9937193470
 H        -6.2563083911       -6.3623053867      -17.0284568065
 H        -7.5625717475       -5.2529552116      -17.5620878765
 H        -1.3610913511       -1.4405238264      -13.3482981193
 H         0.2594485226       -1.7869538830      -12.9252910198
 H        -1.0419375585       -2.5226757698      -12.0232214901
 H        -0.4765568186       -1.8507792492      -15.6484938188
 H        -0.2441388472       -3.4892412633      -16.2639188255
 H         1.0672363422       -2.9021821074      -15.3120975393
 H         3.7676855378       -9.5838270223      -13.9313146501
 H         3.2724263580      -10.8183642150      -13.0726377660
 H         4.0055837669       -9.4971521422      -12.2266243283
 H         1.3578524177       -9.7005705865      -14.9098361097
 H        -0.0280685668       -9.0503084943      -14.1133400578
 H         0.6717641400      -10.6139704109      -13.6118774760
 H         4.3105744137      -11.3642201189       -5.6954751741
 H         4.6575753462      -11.5853067221       -7.3583248372
 H         3.4705456463      -12.5540167595       -6.6610735298
 H         1.4968077597      -10.8980059327       -5.1049723443
 H         1.0100311869      -11.7200113478       -6.5602324503
 H         0.8134017290      -10.0113526560       -6.3931417377
 H         6.0140528377       -4.2292593553       -9.6837329629
 H         5.0869974959       -2.8751063899       -9.3788192256
 H         4.2819723338       -4.2668134336      -10.2973953838
 H         5.6196584308       -4.7389504390       -6.2757605324
 H         5.3893679278       -3.1262980713       -6.8014918598
 H         6.5613743327       -4.2158825433       -7.5646477481
 H         1.8630880292        0.8878860562       -7.0979053966
 H         2.5653100357        0.3298399797       -5.5142073462
 H         1.0984107137        1.3729899688       -5.7327199059
 H         0.4516138214       -0.2785741546       -3.7813856922
 H         1.7577504727       -1.3631161475       -4.3074805315
 H         0.0101801014       -1.8839536921       -4.1934507217
 H        -3.5440232866        3.0723062879       -5.9055141866
 H        -3.9764357126        2.1775264112       -4.5141440424
 H        -5.2204835493        2.5622507337       -5.6951458049
 H        -3.8866847261       -0.0035355587       -4.2934447091
 H        -2.3721308137        0.4939213675       -4.9499026776
 H        -3.0914099160       -1.0223467981       -5.5186758160
 H       -10.2550819942       -0.9633755111       -1.8934335606
 H        -8.5264558916       -0.4673614062       -1.5781250841
 H        -8.9392469622       -2.1412851174       -1.8416289515
 H       -11.2034105415       -1.3298523062       -4.2174942113
 H       -10.2690913095       -2.6778832510       -3.8470184633
 H       -10.0030808888       -1.9616940081       -5.4509736242
 H       -10.7591054066        5.4328147459       -4.5027685937
 H       -11.2992537569        5.6159525206       -6.2421073554
 H        -9.9351465009        6.4814314364       -5.7942987468
 H        -9.8772592489        2.4090610489       -6.8686420082
 H       -10.4705116063        3.6710429688       -7.7543253303
 H       -11.3368317449        3.1307252884       -6.3509126682
 H        -3.0981631467        5.4722220711       -7.4255890380
 H        -2.5527467190        7.0278501785       -7.2367680945
 H        -2.1386925655        6.2927278760       -8.7024508144
 H        -5.4084250326        8.2965510099       -9.6011240020
 H        -3.7909670239        8.8911441191       -9.3070888751
 H        -4.7226910236        8.5707734001       -7.9368394510
 H        -5.8968092189        3.6723030857      -14.2887021861
 H        -7.2446509106        4.7540253080      -14.0517856485
 H        -7.6374385158        3.1753258845      -14.4770138147
 H        -8.8823203981        3.9470953538      -12.4779334355
 H        -8.4900774477        3.6179536141      -10.8059273962
 H        -8.6950670550        2.2272910070      -11.8414931829
 Na       -5.8591961902        2.7532985808       -8.6928078909
 Na        2.4091125408       -5.6336794551      -10.9747531129
