232

 C        -5.5296039818        1.1276379699      -13.0763001533
 C        -6.2798148726        2.0093354904      -12.0148878114
 O        -6.3492100914        1.7087272295      -10.8072259994
 C        -6.9344417339        3.3957979342      -12.4757216308
 C        -6.1617976913        4.6100741989      -11.6898290908
 O        -6.4760294524        4.8157743447      -10.5667532398
 C        -4.8887791356        5.3454768483      -12.3373261691
 C        -4.3547662597        6.4440469918      -11.3710523026
 C        -4.1221907289        5.7745005549       -9.9817197938
 O        -3.8046028510        4.5897749049       -9.8507633507
 C        -4.1726888358        6.6413659068       -8.6201997538
 C        -5.2865167905        6.0386834380       -7.7230333846
 O        -5.0094259648        5.0341298301       -7.0996526058
 C        -6.7676267990        6.7861744350       -7.5983352807
 C        -7.4210840389        5.9579278378       -6.4032337047
 C        -8.3226484860        4.7311039198       -6.8209431254
 O        -8.0052171527        4.0872465776       -7.8333010714
 C        -9.5610304817        4.3887422745       -5.9671086263
 C        -8.8858393005        3.7038220571       -4.6992790228
 O        -7.6312621486        3.7264953792       -4.6122959822
 C        -9.8818013752        3.1160531024       -3.6402049760
 C        -9.3023041252        1.8028877154       -3.0888100786
 C        -9.3612277442        0.5435044629       -4.0622354330
 O        -9.4158894961        0.8043908292       -5.2450901402
 C        -9.1015958369       -0.9138068412       -3.7073337865
 C        -7.6173430815       -1.1706675350       -4.2265335582
 O        -6.7442549899       -1.4874763797       -3.4322409167
 C        -7.3412411655       -1.3222189324       -5.7277943929
 C        -5.8084049382       -1.2246649207       -5.9959249951
 C        -5.5196214737        0.2454912390       -6.5323939702
 O        -6.3895708496        0.9207153973       -7.1064198845
 C        -4.0957309623        0.8068525583       -6.1900601536
 C        -3.3888997877        1.0869289248       -7.5808100676
 O        -3.8176025336        1.9280554956       -8.4160078852
 C        -2.3399896278        0.1288625625       -8.1649924479
 C        -0.8579121210        0.2253377934       -7.6678858734
 C        -0.5001714294       -0.8625802708       -6.6156686223
 O        -1.3137544821       -1.7663620179       -6.3673053160
 C         0.8936814444       -0.8336653476       -5.8951144106
 C         1.7431989097       -2.0204587770       -6.5124216904
 O         2.8934007706       -1.8508870360       -6.8230621584
 C         1.0886783873       -3.3408516550       -6.4089868550
 C         2.2097039584       -4.4143825094       -6.6030453956
 C         2.9245468611       -4.3727883907       -8.1083684991
 O         2.2015084578       -4.2211352800       -9.1112138186
 C         4.4430407218       -4.6788603466       -8.2940789270
 C         4.4284121867       -6.2063571927       -8.3292513374
 O         3.8576235133       -6.8154458218       -9.2040613869
 C         5.0351423926       -7.0541232067       -7.2202928318
 C         4.7612982461       -8.6150522515       -7.4222664228
 C         3.3363744565       -8.9886037521       -6.7582122766
 O         2.7853577437       -8.2254997052       -5.9842577254
 C         2.7753732754      -10.4508937752       -7.0821194827
 C         2.6219324437      -10.6355636502       -8.5774371013
 O         3.5567575132      -10.8960967123       -9.2862303163
 C         1.1397142609      -10.4146327132       -9.2655248068
 C         1.0490582708      -10.3298608007      -10.8500693030
 C         1.2742997536       -8.9378943970      -11.4878893250
 O         1.2248348222       -7.9232427661      -10.8521300587
 C         1.8603756583       -8.9552447893      -12.9765213599
 C         2.2653400158       -7.5263712248      -13.3339934041
 O         3.2393692924       -7.0205192353      -12.8204733101
 C         1.4313255175       -6.8103623003      -14.4515414022
 C         1.3562368205       -5.2623597472      -14.4490409525
 C         0.2830033718       -4.5762443134      -13.4701672743
 O         0.3627909284       -4.7110450341      -12.2648649287
 C        -0.6736685719       -3.4327101790      -14.0204925029
 C        -2.1857608130       -3.9782351983      -14.0345237545
 O        -2.9369193216       -3.6534792267      -13.1381098710
 C        -2.6165166695       -4.9820854808      -15.1661100301
 C        -4.1531630571       -4.9470549959      -15.4873025037
 C        -4.3878384986       -4.4242687442      -17.0104034327
 O        -3.4566451884       -4.0598843190      -17.6723873560
 C        -5.8568130057       -4.2642692777      -17.5364641734
 C        -6.1262005575       -2.7492913390      -16.9762975051
 O        -6.3345479590       -2.6042406782      -15.7668259685
 C        -5.9338521692       -1.5831465440      -17.9763724236
 C        -6.1427186950       -0.1160100712      -17.4646947399
 C        -7.5090448180        0.4090706076      -18.0072583604
 O        -8.4383404813       -0.4043544691      -18.0214677036
 C        -7.7189122528        1.8131713724      -18.8261796178
 C        -8.1934042568        2.7848298404      -17.7298256212
 O        -7.2808822728        3.4053037887      -17.1373014862
 C        -9.6345770807        3.0666717769      -17.3440809245
 C        -6.3818998544        2.3524817841      -19.3660497923
 C        -8.7141794388        1.4206019472      -19.9169021930
 C        -5.7889660529       -4.2258054757      -19.0810582947
 C        -6.6476029504       -5.4315193547      -16.9096456080
 C        -0.6948749281       -2.2194523149      -13.0360388770
 C        -0.2792314805       -2.9594443930      -15.4198555452
 C         3.2219673341       -9.8406024442      -12.9763848773
 C         0.8901391239       -9.7130316710      -13.9172822484
 C         3.8115240078      -11.5859568043       -6.5206328237
 C         1.3745114640      -10.7558713212       -6.3163478164
 C         4.9111701721       -4.0271348874       -9.6385755429
 C         5.3727933347       -4.1511371935       -7.1590131103
 C         1.5994907965        0.5443182034       -6.1267729345
 C         0.5414993863       -1.1152878357       -4.4243748277
 C        -4.3455462479        2.2559567974       -5.6171541529
 C        -3.2477271702       -0.1157323762       -5.1897453332
 C        -9.0709663172       -1.1286549947       -2.1590723354
 C       -10.2312935421       -1.7586124899       -4.3501667657
 C       -10.5339602365        5.5813854094       -5.6189471236
 C       -10.4450393467        3.3017931582       -6.7150769638
 C        -2.7123019706        6.4222513936       -8.0631179516
 C        -4.3941288721        8.2267321930       -8.6564894174
 C        -6.9039709927        3.5661510080      -13.9983223932
 C        -8.3944447794        3.2132927106      -11.8270979607
 H        -6.0586396100        1.1026124076      -14.0720923199
 H        -5.3436121813        0.0820189818      -12.7210863097
 H        -4.5514793555        1.6527629841      -13.1906327092
 H        -5.1876068827        5.7156641695      -13.3186936155
 H        -4.1781780267        4.5438093968      -12.5932298198
 H        -5.1427579236        7.1128893350      -11.1573114873
 H        -3.4320310454        6.8582001995      -11.7968255670
 H        -7.3264298374        6.7271596525       -8.5367029575
 H        -6.8270076428        7.7535585535       -7.0967601298
 H        -8.0436364356        6.5068834729       -5.7848376972
 H        -6.6824449359        5.4098892689       -5.8353716043
 H       -10.7994933950        3.0323614568       -4.1957986198
 H       -10.0847206652        3.8760449469       -2.8352355872
 H        -9.8248789341        1.7058185183       -2.0541045737
 H        -8.2514651639        1.8765858710       -2.8647727032
 H        -7.8076163625       -0.4734464732       -6.2357405233
 H        -7.6750846064       -2.3033331971       -6.1553011563
 H        -5.3559060378       -1.8195871080       -6.8702164725
 H        -5.1839674991       -1.4889275669       -5.1858681902
 H        -2.4369408749        0.3297735616       -9.2353398485
 H        -2.6692401582       -0.9218020791       -8.0098947083
 H        -0.7607008712        1.2304832851       -7.2755107393
 H        -0.1399982533        0.1774823903       -8.5189770704
 H         0.3205527205       -3.3979824566       -7.1511446116
 H         0.5948042342       -3.5428129890       -5.4804544840
 H         1.6865030046       -5.3765311131       -6.5201472562
 H         3.0846945713       -4.2944728917       -5.8563112433
 H         4.4432457194       -6.8192063348       -6.3517465908
 H         6.1222582144       -6.8850586226       -7.1844785816
 H         5.4552624872       -9.1727170107       -6.8057444864
 H         4.8706662979       -9.1054181810       -8.3813406202
 H         0.8072512198       -9.4561048838       -8.8226116616
 H         0.6861142669      -11.2892677562       -8.8172557524
 H         0.0111558403      -10.7029181560      -11.1231754044
 H         1.7052890718      -10.9964578214      -11.3832700644
 H         0.3665613319       -7.0797468075      -14.3541883891
 H         1.8254498392       -7.1135104324      -15.3856290257
 H         1.0376421060       -4.8905775989      -15.4562097775
 H         2.2388396950       -4.7785022633      -14.2652789322
 H        -2.2552508927       -5.9742951783      -14.8765217188
 H        -2.0795037259       -4.7486678335      -16.1137700638
 H        -4.7210835223       -4.3087966132      -14.8177527745
 H        -4.5094090026       -6.0276664235      -15.4778543740
 H        -6.4680032868       -1.7368050294      -18.9251967193
 H        -4.8489637145       -1.7182911106      -18.2672239194
 H        -5.2431015299        0.4496586751      -17.6037787543
 H        -6.2109019991       -0.2938764530      -16.4166431190
 H        -9.5719986384        3.5526562519      -16.4048713893
 H       -10.1264854860        2.1079735258      -17.2306755504
 H       -10.0661325022        3.7884090695      -18.0817382157
 H        -5.5867283324        2.5096642836      -18.6193394671
 H        -6.4579235815        3.2185640293      -20.0260436981
 H        -6.1221731108        1.4864814931      -20.0503356170
 H        -9.6336306082        0.9628455571      -19.5970236636
 H        -8.1686916740        0.7928498135      -20.6530750179
 H        -8.9844543807        2.3210103044      -20.4397803465
 H        -6.6641009047       -3.7248588464      -19.4746133632
 H        -5.8480911920       -5.2485662459      -19.4941293745
 H        -4.9625701351       -3.7357995943      -19.4203893858
 H        -6.8625712474       -5.1922820145      -15.8991541744
 H        -6.0410918988       -6.3558395261      -16.9647296156
 H        -7.5575507204       -5.6052639300      -17.3745495436
 H        -1.3974977207       -1.4716441894      -13.2360055001
 H         0.2804447244       -1.7090775344      -13.0867434301
 H        -0.8136566602       -2.5128934367      -12.0113851754
 H        -0.8728450598       -2.0740362732      -15.8195114397
 H        -0.3726626354       -3.7148572480      -16.1748272464
 H         0.7932498986       -2.8414184260      -15.4106047288
 H         3.6878715714       -9.8965289253      -13.9359876883
 H         3.0145442794      -10.9075701925      -12.9106517274
 H         4.0211312503       -9.6309400480      -12.3019126335
 H         1.1948056491       -9.8669438857      -14.9976542510
 H        -0.0930624468       -9.1670361767      -13.9541621512
 H         0.8087110041      -10.6454614404      -13.3072542144
 H         4.3016814493      -11.2540309798       -5.5832285552
 H         4.6403138988      -11.7157424358       -7.2238626328
 H         3.2617944203      -12.4681347193       -6.3817672754
 H         1.5667197027      -10.9940943351       -5.2759282425
 H         0.9180165804      -11.6155016635       -6.7353395272
 H         0.6413021670       -9.9790871732       -6.2817923629
 H         5.7772344219       -4.6002231235       -9.9307547466
 H         5.3629107554       -3.0774531816       -9.4256930402
 H         4.0410113443       -4.0173576394      -10.3240955782
 H         5.0308602938       -4.5712355795       -6.0826007178
 H         5.2582711879       -3.1221848333       -7.0337329649
 H         6.4410687534       -4.4014499329       -7.3222668869
 H         2.1208154376        0.6869447240       -7.1365278573
 H         2.3573887928        0.7336409628       -5.3556012564
 H         0.8659568037        1.3492864634       -6.1844286904
 H         0.4507370840       -0.2354657954       -3.9072999078
 H         1.4532421027       -1.6465796478       -4.1155461138
 H        -0.3255146064       -1.6551994850       -4.2884752737
 H        -3.8683510137        3.0318507078       -6.2224053920
 H        -3.8702062440        2.3313752640       -4.6521310230
 H        -5.4193802496        2.4287872654       -5.4862463226
 H        -3.7009239690       -0.3438709148       -4.2429028690
 H        -2.2197874791        0.2787687233       -5.0132373739
 H        -3.0824826020       -1.0582663297       -5.6700900343
 H       -10.0349935656       -0.9238960211       -1.7999883174
 H        -8.3173465443       -0.6420472963       -1.5970685612
 H        -8.8715068913       -2.2236591839       -1.9881333808
 H       -11.2179414494       -1.4043962835       -4.0329346388
 H       -10.2083993510       -2.8012321704       -3.9869565222
 H       -10.1302992104       -1.7169413121       -5.4408920800
 H       -11.2822377828        5.2517784212       -4.8997204293
 H       -11.0178732870        5.7907719277       -6.6091764315
 H       -10.0560144109        6.4668674716       -5.3566361337
 H        -9.8018944828        2.4571266984       -6.9677696471
 H       -10.7846970334        3.6700682968       -7.6652382922
 H       -11.2075874384        2.8471155776       -6.0759541016
 H        -2.6774260739        5.5331389178       -7.4338954734
 H        -2.4863371064        7.2021890700       -7.3023795428
 H        -2.0056713057        6.5191440978       -8.8570048176
 H        -5.3469668739        8.4183741690       -9.0391163657
 H        -3.7022781920        8.8711792211       -9.2138943582
 H        -4.3620052467        8.6316142159       -7.6528137130
 H        -5.8929908180        3.7420893865      -14.3369204652
 H        -7.5175455104        4.3828609317      -14.3606300618
 H        -7.3252916240        2.7220350159      -14.5320673713
 H        -8.9352485213        3.9864688728      -12.2688716818
 H        -8.3204543100        3.2093531259      -10.7838976185
 H        -8.7168638815        2.1837397111      -12.0583311866
 Na       -5.8763879372        2.8199450909       -8.6369281966
 Na        2.3957277799       -5.7460707825      -10.9630978839
