232

 C        -5.5750068892        1.1721521575      -13.1893050512
 C        -6.1528475501        2.0352126004      -12.1139630161
 O        -6.1705069353        1.7065322558      -10.9531856680
 C        -6.9100817308        3.3995599565      -12.5443516851
 C        -6.0870062948        4.5669396349      -11.7952144760
 O        -6.4258255747        4.8395851117      -10.6211403260
 C        -4.9366097642        5.3998447471      -12.3593158311
 C        -4.3828385455        6.4655419585      -11.2610879306
 C        -4.0910902056        5.7961769006       -9.9068598594
 O        -3.7606708716        4.6532692319       -9.8989108955
 C        -4.1176665350        6.6513961279       -8.5871939940
 C        -5.2222637398        6.0736576664       -7.6581535093
 O        -5.1048632333        4.9698600342       -7.1608819547
 C        -6.5741612582        6.6464328764       -7.4865398140
 C        -7.4657702298        6.0115188625       -6.3381712232
 C        -8.2990345313        4.7814333329       -6.9113845638
 O        -7.9219213085        4.0314263594       -7.7759026251
 C        -9.5074632005        4.3657973671       -6.0474351658
 C        -8.9175455041        3.7451014265       -4.6959146984
 O        -7.7415402880        3.6398413838       -4.4959555056
 C        -9.8262858025        3.0784584960       -3.6346385642
 C        -9.1419099057        1.8051421194       -3.0915066651
 C        -9.2859089270        0.6602556144       -4.1006992706
 O        -9.4689844424        0.8639983020       -5.2754272254
 C        -9.1100295333       -0.8810476565       -3.6181803442
 C        -7.6733988170       -1.2519358540       -4.1272064509
 O        -6.7461427942       -1.4674719942       -3.3844051682
 C        -7.4912857330       -1.3637730595       -5.7069880704
 C        -6.0024422611       -1.1595877540       -6.0781951135
 C        -5.6297982410        0.3086414659       -6.4588788114
 O        -6.4412791368        0.9132684494       -7.1195005593
 C        -4.1731262697        0.8974061544       -6.2078565820
 C        -3.4589315911        1.0015980542       -7.6454644186
 O        -3.7977767909        1.9678420522       -8.3088246737
 C        -2.3444481404        0.0251571938       -8.1498458216
 C        -0.9011066232        0.2641291287       -7.7452454337
 C        -0.4970855029       -0.8256954734       -6.7184401372
 O        -1.2200249797       -1.7928301949       -6.6177979205
 C         0.8723375209       -0.8122678735       -5.8634390465
 C         1.8858975305       -1.9695384119       -6.4252702856
 O         3.0087195827       -1.7763274446       -6.8308069161
 C         1.2115340942       -3.3945214038       -6.5395542514
 C         2.2046787966       -4.5858693168       -6.7520644849
 C         2.8539139245       -4.4122842921       -8.1898043021
 O         2.0897475432       -4.1800584832       -9.1038525974
 C         4.3425764397       -4.7318071848       -8.3085985153
 C         4.3655293464       -6.3306663281       -8.3993362417
 O         3.7696820335       -6.7961958093       -9.3065554488
 C         5.0594156551       -7.0900901150       -7.1452381179
 C         4.8092436015       -8.6579313803       -7.1989465866
 C         3.4226364893       -9.0373677476       -6.7158251547
 O         2.8726588805       -8.3366824784       -5.9211331783
 C         2.8214236745      -10.3929157953       -7.1644908789
 C         2.6832876005      -10.5992670806       -8.6861063788
 O         3.6376962421      -11.0126745560       -9.3144122329
 C         1.2128428686      -10.3634535487       -9.3099662390
 C         1.0116696259      -10.2644569595      -10.7993485295
 C         1.4033389261       -8.9600373247      -11.3343367994
 O         1.2297782715       -7.8996997945      -10.7720941006
 C         1.8767210722       -9.0409280186      -12.9614583769
 C         2.3385651174       -7.5449494598      -13.3757779970
 O         3.2067373837       -7.0259216034      -12.6381589964
 C         1.5578820870       -6.7788395889      -14.4803846869
 C         1.3085423052       -5.2665257588      -14.4670603990
 C         0.4054421929       -4.5636293019      -13.4403776147
 O         0.3967436204       -4.7978474165      -12.2360908287
 C        -0.6555863644       -3.5483708720      -14.0713287335
 C        -2.2508386973       -3.9603252620      -13.9336442115
 O        -2.8860947938       -3.6845932623      -12.9885431297
 C        -2.7771316427       -4.7352785678      -15.1747751113
 C        -4.2539033039       -4.7717590009      -15.6112987522
 C        -4.3700508088       -4.3508770884      -17.0118729050
 O        -3.4307656346       -4.1203561664      -17.7663552857
 C        -5.8491786317       -4.2028737366      -17.4746491009
 C        -6.0884009328       -2.7108947170      -16.9112610813
 O        -6.2225801112       -2.4148319959      -15.7471161567
 C        -5.8362630646       -1.6122948116      -17.9173138703
 C        -6.1576923426       -0.1662245963      -17.4473162220
 C        -7.4931459856        0.2229053303      -18.0822514119
 O        -8.4439238561       -0.5038517415      -18.0256180812
 C        -7.6860654779        1.5902181459      -18.8003954361
 C        -8.1515432441        2.7581208008      -17.6873402773
 O        -7.2614126312        3.2691733807      -17.0604279710
 C        -9.6565588596        3.1234048507      -17.3536430696
 C        -6.4174791514        2.2429730866      -19.3473894430
 C        -8.7987255934        1.3212395149      -19.8536261959
 C        -5.9064698735       -4.4105804209      -19.0907981673
 C        -6.7898991806       -5.3036600976      -16.9008948438
 C        -0.5977013280       -2.2885976669      -13.1020546112
 C        -0.4712450230       -2.9952784681      -15.4832091789
 C         3.1692229126       -9.8075566797      -12.9199547450
 C         0.8531543141       -9.7261008995      -13.8407753845
 C         3.6848937858      -11.4203060526       -6.5401899141
 C         1.4176637654      -10.5253874697       -6.4021336352
 C         4.8573727469       -4.1931507008       -9.6812621542
 C         5.0975984468       -4.0915981671       -7.1240192972
 C         1.5918728778        0.5281400555       -6.0395232842
 C         0.4958674321       -1.0703473007       -4.3430842185
 C        -4.4241670486        2.2831725246       -5.5237905661
 C        -3.3623397358        0.0457725924       -5.3164187407
 C        -8.9889448070       -1.1284619233       -2.0506449040
 C       -10.1106829420       -1.7198064374       -4.3126924328
 C       -10.4689295176        5.5152438810       -5.6626567457
 C       -10.4165399066        3.2845419775       -6.6985196080
 C        -2.6319804063        6.4924487993       -8.0536269789
 C        -4.2277925402        8.2181902378       -8.6732252179
 C        -6.9735298006        3.4633225988      -14.0282002734
 C        -8.3241076029        3.3203646502      -11.9918315578
 H        -6.1969279224        1.1388675057      -14.0482305988
 H        -5.5573073524        0.1791903232      -12.7195444181
 H        -4.5359485130        1.4611979222      -13.4757564772
 H        -5.1787696650        5.7836989146      -13.3557922096
 H        -4.1137844576        4.6189902887      -12.5792545028
 H        -5.0071785217        7.2902587303      -11.0442839771
 H        -3.4379838587        6.7307346799      -11.6746432098
 H        -7.0383328372        6.4514678680       -8.4783808209
 H        -6.6719337556        7.6831557506       -7.1613581366
 H        -8.1347274139        6.6410600709       -5.8697872370
 H        -6.9056864821        5.4679668263       -5.6011456153
 H       -10.8335990219        3.0092246619       -4.0055451477
 H        -9.8506508757        3.8329850794       -2.8136202853
 H        -9.6055801842        1.5558835824       -2.1391873839
 H        -8.0410782041        1.9786421516       -2.8526084711
 H        -8.0848271243       -0.6618602006       -6.2620708169
 H        -7.6588097994       -2.3734807858       -6.0736551171
 H        -5.6760216722       -1.6344128997       -7.0660335649
 H        -5.2842066551       -1.6292888973       -5.3416757839
 H        -2.4374657167        0.2005678597       -9.3100183376
 H        -2.5182100364       -0.9577825191       -7.9798708392
 H        -0.7397841074        1.2846057397       -7.4573181727
 H        -0.3107886719        0.0821013987       -8.6383066590
 H         0.4345452940       -3.2996660224       -7.4039825296
 H         0.6349153015       -3.7670721816       -5.6813194573
 H         1.6034105848       -5.4661046313       -6.6995032689
 H         3.0062644662       -4.5866349512       -6.0046672587
 H         4.6388699099       -6.6449439912       -6.2234487149
 H         6.1225757586       -6.9614515259       -7.3148278190
 H         5.6241166775       -9.2130488698       -6.6453022289
 H         4.9489141573       -9.1027907686       -8.2341569331
 H         0.8501833279       -9.4309530862       -8.7539314264
 H         0.8796859977      -11.2588558616       -8.8727564255
 H        -0.0386953740      -10.3799705893      -11.0597716426
 H         1.5168871919      -11.0748800139      -11.3994512281
 H         0.5449937607       -7.2575110320      -14.5107647647
 H         2.0989474756       -6.8936702751      -15.3999041921
 H         0.9892447203       -4.9057026854      -15.4867604617
 H         2.3115706852       -4.7918123025      -14.3376187157
 H        -2.4243912435       -5.8310836698      -15.0304560698
 H        -2.2135738604       -4.4329863876      -15.9889530834
 H        -4.8672605287       -4.0040475102      -15.0274043952
 H        -4.6212375511       -5.7586901494      -15.5684671062
 H        -6.3341982857       -1.7688559270      -18.8619153364
 H        -4.7159709989       -1.7179022175      -18.2142092894
 H        -5.3645406308        0.4123953294      -17.7196629899
 H        -6.2606069902       -0.2155242181      -16.3819988541
 H        -9.5974496229        3.8041787529      -16.5301091019
 H       -10.1892950510        2.2256532121      -17.0365062200
 H       -10.0476997704        3.6396746020      -18.2295445030
 H        -5.6568304189        2.5811519205      -18.6025038013
 H        -6.7355296362        3.0908624259      -19.9877713151
 H        -6.0115894814        1.5853435089      -20.0697452245
 H        -9.7104483384        0.8339190149      -19.4234855604
 H        -8.3759154736        0.6355353829      -20.5623278823
 H        -9.1086604417        2.2221997411      -20.2839327850
 H        -6.7752243522       -3.8637032835      -19.4341440140
 H        -5.9337104621       -5.4045855682      -19.3579752071
 H        -5.0543019653       -3.9278593671      -19.5955262142
 H        -6.9752313016       -5.2442462144      -15.8418273341
 H        -6.3562251851       -6.2391554352      -17.1719734052
 H        -7.7696453038       -5.2688361693      -17.3972490308
 H        -1.3696202024       -1.5386341275      -13.2283513753
 H         0.3224787785       -1.7661502463      -13.1978454233
 H        -0.6302121815       -2.6147972298      -12.0706132956
 H        -1.3342725542       -2.4557376938      -15.7410373467
 H        -0.3170910242       -3.7238934762      -16.2795215706
 H         0.4123300533       -2.4407524475      -15.5086074575
 H         3.6780598235      -10.0173413978      -13.8817954614
 H         3.0429008550      -10.8720428692      -12.6375110538
 H         3.8989363490       -9.4096595169      -12.2998517872
 H         1.0886494339       -9.5405445916      -14.9469682713
 H        -0.0595706889       -9.0933751018      -13.7036757502
 H         0.7326451906      -10.8231240644      -13.5173228189
 H         4.1347745886      -11.0406856404       -5.5824448499
 H         4.5743397601      -11.4168020637       -7.1931330844
 H         3.1374372879      -12.4310141545       -6.3671760297
 H         1.6164723107      -10.6207735616       -5.3770218452
 H         0.8574548458      -11.4349126971       -6.6974119186
 H         0.7249579496       -9.6859884589       -6.4942736000
 H         5.5803106526       -4.9288598066      -10.0492084001
 H         5.4808811331       -3.3040874191       -9.5506024063
 H         3.9518278307       -4.0269735249      -10.2599708912
 H         4.6513864282       -4.2715899128       -6.1296919873
 H         5.1016797653       -2.9803097821       -7.1619302137
 H         6.1811048197       -4.4714779852       -7.0916584414
 H         2.2095658338        0.4830354007       -7.0276565462
 H         2.3639457069        0.6046174219       -5.3148404768
 H         1.0277468780        1.4698484601       -6.1995979397
 H         0.3191620255       -0.0756679370       -3.8649332284
 H         1.2661911759       -1.5972012089       -3.8668616639
 H        -0.4223074589       -1.6020725815       -4.3172741892
 H        -4.2261300197        3.0977820063       -6.2416617310
 H        -3.7516547911        2.4364565974       -4.6793356368
 H        -5.4735489955        2.3008569142       -5.1403826448
 H        -3.8316518156       -0.0365730959       -4.3614593348
 H        -2.2803805110        0.2680621181       -5.2351336969
 H        -3.3550982405       -0.9488487465       -5.7087895555
 H        -9.9229565724       -0.8753355286       -1.5304311740
 H        -8.1299641843       -0.7363633470       -1.5827139944
 H        -8.8259345606       -2.1881136249       -1.9941988248
 H       -11.0951098807       -1.6766787254       -3.8696338356
 H        -9.8334700619       -2.8073320279       -4.3006982687
 H       -10.1343266179       -1.3433487996       -5.3217852871
 H       -11.4203658752        5.1397263178       -5.4011092731
 H       -10.5786126484        6.2228431891       -6.4866180794
 H       -10.0248613730        6.0887222318       -4.8177066818
 H        -9.8213762071        2.4476534616       -7.1498898968
 H       -11.0293212700        3.7133928171       -7.5856982957
 H       -10.9500451427        2.7752166710       -5.9043554644
 H        -2.5091607671        5.4491639970       -7.6994471933
 H        -2.4921314390        7.0235054869       -7.0455774032
 H        -1.9288964588        6.8880898098       -8.8135502628
 H        -5.2394483329        8.5555068265       -9.0251672222
 H        -3.5362689237        8.5472473723       -9.3935997182
 H        -4.0496594012        8.8180635618       -7.7985734328
 H        -6.0194074137        3.6376583387      -14.5360292695
 H        -7.6578260749        4.2118031905      -14.3686506136
 H        -7.3730081627        2.5312247088      -14.4238842537
 H        -8.7782589182        4.3273729386      -12.1812138411
 H        -8.2051212277        2.9309473367      -10.9500751947
 H        -8.7883586919        2.5267335832      -12.4505724742
 Na       -6.0011799879        3.0509927122       -8.5887952564
 Na        2.3181923755       -5.8829810513      -10.9448945559
