232

 C        -5.5716899881        1.1092239010      -13.2295098936
 C        -6.0519042011        2.0098312938      -12.1155484361
 O        -5.9049179919        1.7671527550      -10.9549827061
 C        -6.8003223927        3.4364876425      -12.5907482339
 C        -6.0706163319        4.5837726523      -11.7648458594
 O        -6.4861621852        4.7541078027      -10.5860105299
 C        -4.9252325264        5.4354743618      -12.3538967939
 C        -4.5169405913        6.4347860626      -11.3305502152
 C        -4.1175382654        5.8306452471       -9.9105914954
 O        -3.7511689791        4.6955310901       -9.8252170292
 C        -4.0329239909        6.6965456165       -8.5405580169
 C        -5.1833842270        5.9218718327       -7.6117712740
 O        -4.9182366807        4.7872962297       -7.2371002399
 C        -6.5199648024        6.6472463703       -7.4760498714
 C        -7.4702822802        6.0992775574       -6.4514046267
 C        -8.2020626719        4.7025039400       -6.8241189125
 O        -7.8881927075        4.0488908444       -7.7872712397
 C        -9.5190139441        4.2444627626       -5.9363669443
 C        -8.9275143779        3.6051895500       -4.6712821802
 O        -7.7509043464        3.7052563146       -4.5103319424
 C        -9.8075156223        3.0123968651       -3.5348844536
 C        -9.1193724542        1.7814672661       -3.0132854954
 C        -9.1992861403        0.7255110394       -4.0385984480
 O        -9.5345730756        0.8722247271       -5.2034395471
 C        -8.9959402730       -0.8414176677       -3.6436956976
 C        -7.6221669313       -1.2923053756       -4.1351284734
 O        -6.6743159273       -1.4515753726       -3.3917908660
 C        -7.5625696986       -1.3768822689       -5.6166036376
 C        -6.1752633216       -1.2205194611       -6.1730961235
 C        -5.7302930502        0.3227767075       -6.6494271481
 O        -6.4760011810        1.1025512889       -7.1936889145
 C        -4.2934163060        0.8681988993       -6.1916599974
 C        -3.4991188624        1.1389114048       -7.6470598413
 O        -3.8148052627        2.0289461871       -8.3661884885
 C        -2.5099607038        0.0730026315       -8.1469044551
 C        -0.9926886756        0.2501135186       -7.7244331184
 C        -0.4328080605       -0.8784102070       -6.8572311316
 O        -1.0361177836       -1.9140490093       -6.7514999769
 C         0.8860529720       -0.8139186928       -5.9781358009
 C         1.7916108826       -1.9726953416       -6.3812407937
 O         2.9293705549       -1.6601500527       -6.7316295011
 C         1.2129323902       -3.3885850071       -6.5565757545
 C         2.0595379821       -4.6151457814       -6.8494391361
 C         2.7031295800       -4.4376776209       -8.1818913215
 O         2.0511779539       -4.2456561881       -9.1955042307
 C         4.2463112827       -4.8077186160       -8.2950409935
 C         4.2578053891       -6.3950935840       -8.3121611336
 O         3.7912876222       -6.9925944794       -9.2922926089
 C         5.0106987733       -7.1085255882       -7.3135852540
 C         4.8768024789       -8.5968459441       -7.2311567710
 C         3.4196017658       -8.9673280711       -6.7022782486
 O         2.8934837762       -8.2920816765       -5.8144064472
 C         2.8964044412      -10.3598512661       -7.1137651551
 C         2.6613839292      -10.6173130574       -8.7551972966
 O         3.5859161458      -10.9935589873       -9.4305671107
 C         1.2443201476      -10.3582512562       -9.2426079509
 C         1.0315774465      -10.3411028782      -10.7028929319
 C         1.4280904111       -8.9759715268      -11.3969029701
 O         1.2849141175       -7.9689312595      -10.7493904763
 C         1.9521498590       -8.9673919662      -12.8622954624
 C         2.1853419353       -7.4488207526      -13.2224951301
 O         3.1487127649       -6.9122826452      -12.6916094622
 C         1.5994454308       -6.8566020688      -14.4354220174
 C         1.4665820279       -5.2854527944      -14.5289575809
 C         0.2977090448       -4.6618263132      -13.5222011315
 O         0.5095628113       -4.8870542980      -12.3346793897
 C        -0.7222165477       -3.5407215271      -14.0076933889
 C        -2.2172363898       -4.0280145439      -13.8745456201
 O        -2.9023564499       -3.7648330275      -12.8807936628
 C        -2.7271368083       -4.7418226417      -15.1332065878
 C        -4.2049580403       -4.5924756396      -15.4607572400
 C        -4.3990011429       -4.3874059189      -17.0362438790
 O        -3.4754368512       -4.1751017366      -17.7968380351
 C        -5.8821842697       -4.1414025319      -17.4934754714
 C        -6.0533941363       -2.6485779066      -16.9960804786
 O        -6.1789127816       -2.4878872498      -15.8083305329
 C        -5.6570051913       -1.5688885830      -18.0208118528
 C        -6.1844347580       -0.2000992844      -17.4875523152
 C        -7.5636419594        0.1244166884      -18.0037542980
 O        -8.4451491237       -0.6905232476      -17.9578409900
 C        -7.8083267954        1.5717491254      -18.7538179547
 C        -8.1083396344        2.6220761180      -17.5916203686
 O        -7.2714298601        3.1463747078      -16.9193075363
 C        -9.5468603351        3.0034211596      -17.5084028844
 C        -6.4659453313        2.0407034817      -19.4512669661
 C        -8.8876309468        1.4394231000      -19.8025618382
 C        -6.0544884279       -4.4105468651      -18.9906512267
 C        -6.9555390819       -5.0037934622      -16.8285429457
 C        -0.4697014935       -2.3077760740      -13.0651095706
 C        -0.4735171382       -3.0232151515      -15.4575799904
 C         3.2794426786       -9.8284947011      -12.8979076890
 C         0.8212730651       -9.6085834894      -13.7020359789
 C         3.7416426429      -11.4823302440       -6.5534623900
 C         1.3950334023      -10.2707405347       -6.4815541480
 C         4.8762124895       -4.3517956113       -9.7269575348
 C         5.0291606574       -4.0851608085       -7.1749925666
 C         1.6760776981        0.5300577158       -5.9464953222
 C         0.5219255590       -1.0215389480       -4.4382759660
 C        -4.4309652716        2.3019910395       -5.5071981959
 C        -3.4149853167        0.0272742119       -5.2535304485
 C        -9.0620305263       -0.9994156312       -2.0517300337
 C       -10.0708746863       -1.7113353392       -4.2474940070
 C       -10.3830385197        5.5740835691       -5.6141208675
 C       -10.3226273476        3.2735375138       -6.8415539032
 C        -2.6187054375        6.4164354066       -7.8750153463
 C        -4.2061570609        8.1800870746       -8.8776931523
 C        -6.9473415410        3.6352283510      -14.1747922009
 C        -8.2779550389        3.4751699389      -12.0304486395
 H        -6.3099878615        0.9596189224      -13.9908043546
 H        -5.2903553056        0.2195437597      -12.7308008026
 H        -4.7000958081        1.5419476122      -13.6629681142
 H        -5.3399218862        5.9664706514      -13.2527044973
 H        -4.1434985224        4.8030387700      -12.8021505936
 H        -5.3309791078        7.1879253017      -11.1497791446
 H        -3.6458131296        6.9041424895      -11.7585553926
 H        -6.9405070249        6.7432277128       -8.4957246743
 H        -6.3746210275        7.5977278493       -6.9796077018
 H        -8.3827409299        6.7068611286       -6.1478559056
 H        -6.9105979396        5.8994090384       -5.5131422165
 H       -10.8452107795        2.9571303411       -3.9278166568
 H        -9.8089470748        3.8070183229       -2.8252683597
 H        -9.4771241782        1.4375275775       -2.0836593216
 H        -8.0278667177        2.0402118989       -2.8652710624
 H        -8.2883182960       -0.7161287662       -6.1143345521
 H        -7.7733000821       -2.3780738833       -5.8771584290
 H        -5.8452193929       -1.9456586349       -6.8782640858
 H        -5.4038917586       -1.3207995037       -5.3193114016
 H        -2.6428683747        0.0803285499       -9.2038189050
 H        -2.7585249989       -0.9536526058       -7.8017010663
 H        -0.9083163925        1.1742653823       -7.1387679559
 H        -0.4258294309        0.3576792138       -8.6270593888
 H         0.4682570777       -3.2381413324       -7.4103262852
 H         0.6002693183       -3.8196610058       -5.6999798827
 H         1.3228229478       -5.4300842982       -6.8435321983
 H         2.8272803322       -4.8239879545       -6.2164032593
 H         4.6184986629       -6.7162563974       -6.3233520655
 H         6.0545765901       -6.8583860574       -7.5153169828
 H         5.7071016449       -8.8396353557       -6.4812182145
 H         5.2043116158       -9.2208268165       -8.1134082623
 H         1.1111142790       -9.3777963095       -8.8333224659
 H         0.7572989324      -11.1351793024       -8.6419068231
 H        -0.0378111131      -10.4102896354      -10.8268204146
 H         1.3780310832      -11.2989980510      -11.1537632362
 H         0.6542947912       -7.2925135933      -14.7553771231
 H         2.4547606861       -7.0585267555      -15.1749380178
 H         1.4504129688       -4.9531850586      -15.5507743899
 H         2.4932881053       -4.8895231968      -14.0562985853
 H        -2.5011323126       -5.8368596383      -15.0862000825
 H        -2.1196163897       -4.4173968558      -15.9584702374
 H        -4.4826832510       -3.6581430122      -14.9553759333
 H        -4.7232032180       -5.4614487182      -15.1348526962
 H        -6.1848798281       -1.7197175952      -18.9777088128
 H        -4.6076880507       -1.6323615475      -18.2758498915
 H        -5.4540966564        0.5439393684      -17.8724666903
 H        -6.2107630146       -0.2749675797      -16.3919139470
 H        -9.6222485076        3.9206941695      -16.8681665061
 H       -10.1642453913        2.2127039064      -17.0972511324
 H        -9.7192900721        3.2267988845      -18.5238728182
 H        -5.7518095863        2.3913599365      -18.7224478639
 H        -6.7278774891        2.8791265398      -20.1033622002
 H        -6.0658026460        1.3495131098      -20.1604421747
 H        -9.7823475691        0.9731894226      -19.4299164984
 H        -8.4605898876        0.6814448307      -20.4097944881
 H        -9.1978395411        2.3979102293      -20.3145644591
 H        -7.0271677981       -4.0437566879      -19.3405361366
 H        -5.7939489427       -5.4589179017      -19.1616872468
 H        -5.2614314982       -3.8141286485      -19.5424585167
 H        -6.9049627611       -4.8343147048      -15.7366060218
 H        -6.8232850090       -6.0328672220      -17.0971217059
 H        -8.0008395486       -4.7350951380      -17.1495350876
 H        -1.1984082783       -1.4942699910      -13.2887352704
 H         0.5029503714       -1.8770238892      -13.2082877280
 H        -0.5542349520       -2.5132606017      -11.9988162764
 H        -1.3600794127       -2.6648679719      -15.8275659203
 H        -0.2170365663       -3.8436663553      -16.0940964391
 H         0.3290743941       -2.3079668556      -15.5552084335
 H         3.6664355389      -10.1044308151      -13.8802480154
 H         3.1681338297      -10.8167209020      -12.4766449368
 H         4.1689524826       -9.3672210386      -12.3670253765
 H         1.1281615539       -9.3187714530      -14.6936228022
 H        -0.1368073683       -9.0691855556      -13.5812253406
 H         0.8071618404      -10.6868912176      -13.5369341825
 H         4.0409900893      -11.3509377902       -5.4954850321
 H         4.7190065670      -11.2774249570       -7.0824500886
 H         3.2346757393      -12.5114192234       -6.6845340161
 H         1.4010062459      -10.0436077449       -5.4059674407
 H         0.7690356701      -11.1792966359       -6.5981008028
 H         0.8207809983       -9.4537516598       -6.9566007170
 H         5.5515322077       -5.1186958726      -10.1004246203
 H         5.5358452907       -3.4769171228       -9.5691759627
 H         4.0228513999       -4.0730904805      -10.3113858857
 H         4.7437527942       -4.2896193359       -6.2213704569
 H         4.8855604338       -2.9310865095       -7.1976266875
 H         6.0835557585       -4.3252715759       -7.2567871192
 H         2.1282625193        0.7911941391       -6.8498742663
 H         2.5673695973        0.3599736307       -5.2958008847
 H         1.0891084003        1.4389484555       -5.7023844876
 H         0.0349998809       -0.0631659295       -4.1014951939
 H         1.3431859077       -1.3191493626       -3.8181583310
 H        -0.3150121553       -1.7933242688       -4.5064252100
 H        -4.5848381894        3.0274767550       -6.3078326103
 H        -3.4880698827        2.5950994312       -4.9743138393
 H        -5.2371618478        2.2846639081       -4.7713537898
 H        -3.9432703142        0.0278258293       -4.2873300915
 H        -2.4411490119        0.4520526607       -5.1907426327
 H        -3.1837456313       -1.0325878859       -5.4999048684
 H       -10.0564115888       -0.6177234223       -1.7038476079
 H        -8.2080680899       -0.5222457614       -1.5080943029
 H        -8.9454061091       -2.0256334224       -1.8479341184
 H       -10.8851292550       -1.8240425764       -3.5358485969
 H        -9.6999409418       -2.7000413967       -4.4206666387
 H       -10.4687152536       -1.2769958406       -5.1676566953
 H       -11.4929882173        5.4321455929       -5.6484950309
 H       -10.1906248383        6.3895506059       -6.2520542998
 H       -10.0538582628        5.8717737774       -4.5747635729
 H        -9.6270958994        2.5602162248       -7.3625205362
 H       -10.8356177190        3.8185049667       -7.6770403488
 H       -10.9170896095        2.5632361228       -6.2204366901
 H        -2.5541232095        5.3185968524       -8.0177126742
 H        -2.4975638869        6.4351526005       -6.7943563157
 H        -1.8200710565        7.0200289957       -8.4331655337
 H        -5.2080209091        8.4211937924       -9.3876066870
 H        -3.4160433161        8.3842548888       -9.5946634628
 H        -4.1576807341        8.9852996819       -8.1368809986
 H        -6.0918662342        3.5259859081      -14.8465609078
 H        -7.3618986075        4.6393691475      -14.3327019317
 H        -7.6727540735        2.8957068230      -14.5597851778
 H        -8.5459759750        4.5681125013      -12.0657483434
 H        -8.2740972901        2.9006301317      -11.0753858129
 H        -8.9048049740        2.8522655925      -12.6869292289
 Na       -6.0545791178        3.2341783083       -8.6222644855
 Na        2.1725687596       -5.8971857354      -10.8983467519
