232

 C        -5.8270564137        1.1121026928      -13.2157855487
 C        -5.8292351988        2.2533195949      -12.1762176750
 O        -5.3394413094        2.0295315994      -11.0891695229
 C        -6.6687653559        3.6081870038      -12.5554929454
 C        -6.1586741858        4.7828966226      -11.6401419080
 O        -6.6938642378        4.9775986347      -10.5437211650
 C        -4.9664080303        5.7167111457      -12.1905434715
 C        -4.3070675763        6.6349310624      -11.2356219750
 C        -3.8826247991        5.8626778094       -9.9295919346
 O        -3.4119193818        4.7372288188       -9.9789171812
 C        -3.9921649009        6.6620907728       -8.4329783159
 C        -5.1547872396        5.9021470192       -7.7140319306
 O        -5.0395608112        4.7334953587       -7.2580305121
 C        -6.4244792062        6.6590531979       -7.4809742172
 C        -7.2271200321        6.0424467157       -6.3443153904
 C        -8.0642487130        4.8019451734       -6.7970264832
 O        -7.8274510200        4.2175166352       -7.8646967050
 C        -9.2906574769        4.3710315809       -5.9027530343
 C        -8.6833271580        3.6184672673       -4.6488224959
 O        -7.4740995195        3.6164988131       -4.4583329538
 C        -9.6736379679        3.1877609774       -3.5769213735
 C        -9.3362676033        1.8699613324       -2.9077399568
 C        -9.4024732478        0.7530658407       -3.8717062746
 O        -9.7868122663        0.9078743868       -5.0240699603
 C        -8.9265133034       -0.7476325223       -3.4109627542
 C        -7.6220624559       -0.9893735724       -4.2580741834
 O        -6.5004720392       -1.0716678479       -3.7861276388
 C        -7.7721671696       -1.0099605533       -5.7401288154
 C        -6.4504623355       -0.9591367251       -6.5074110386
 C        -5.8279055353        0.4502034878       -6.8707851095
 O        -6.5926433484        1.1746520989       -7.5151976109
 C        -4.4909848197        0.9124075611       -6.3354122091
 C        -3.6665552237        1.1911634289       -7.6329367495
 O        -3.9532323366        2.2123179419       -8.2521296020
 C        -2.4519077093        0.4022587030       -8.0604243616
 C        -1.2436046792        0.4615812756       -7.0960278444
 C        -0.7287345440       -0.9135175014       -6.8060593935
 O        -1.3143672306       -1.9224054251       -7.1923558093
 C         0.6465212651       -0.8319497361       -6.1467749124
 C         1.5114418345       -2.1090278785       -6.5212185497
 O         2.7179247814       -1.9093874960       -6.6235155246
 C         0.9653745538       -3.5233371705       -6.6819693313
 C         2.0715289089       -4.4713197824       -6.7652424509
 C         2.7437012725       -4.6500509586       -8.1220620871
 O         1.9781435734       -4.3809756334       -9.0235406623
 C         4.2750425268       -4.9700653996       -8.5082837078
 C         4.2502809404       -6.5662179075       -8.5053265408
 O         3.3209740571       -7.0944861638       -9.1458494640
 C         5.2823617179       -7.3564553863       -7.8272998133
 C         4.9061101769       -8.7734595675       -7.4950320634
 C         3.5881481791       -8.9389020836       -6.7415002139
 O         2.9733999229       -8.0691662021       -6.1453816026
 C         2.7838942201      -10.2543955427       -6.8417839986
 C         2.4955751184      -10.3562351839       -8.5040027318
 O         3.4301851920      -10.2235126020       -9.2207040917
 C         1.0543271092      -10.5395262534       -9.1110273742
 C         1.2551772314      -10.4623861735      -10.7291454563
 C         1.4694500733       -8.9868371208      -11.3110307891
 O         1.1105566180       -8.0906216098      -10.5754488503
 C         1.9363388869       -8.8664978783      -12.7719485422
 C         2.1838710013       -7.4150166762      -13.2628052481
 O         2.9257516054       -6.6511208837      -12.6632690908
 C         1.4201735289       -7.0357084301      -14.5009926146
 C         1.4917922992       -5.4760010640      -14.6638145591
 C         0.5001442677       -4.8329795974      -13.6284882885
 O         0.3605995969       -5.2434625815      -12.5062103342
 C        -0.4214912932       -3.5922950513      -13.9763934886
 C        -1.9877186771       -4.2263462552      -13.8662464776
 O        -2.5749596473       -4.2835547720      -12.7899091391
 C        -2.5111133118       -4.9113042918      -15.1378173957
 C        -4.0105700610       -4.5323764829      -15.2673711090
 C        -4.4867462242       -4.5828635134      -16.7557435741
 O        -3.7245166983       -5.0744112102      -17.5665415710
 C        -5.9137495020       -3.9414633224      -17.1263882829
 C        -6.0202967482       -2.4016323121      -16.8245869568
 O        -6.2426341169       -2.0333272618      -15.6765588226
 C        -5.5240548674       -1.4854911452      -17.9326005391
 C        -6.0361467701       -0.0255933156      -17.7258758409
 C        -7.5215971988        0.0528009263      -18.1915933158
 O        -8.3653795969       -0.7974907536      -17.8648387731
 C        -8.0117716496        1.4033131726      -18.9461945336
 C        -8.1542511716        2.2323281524      -17.7012140407
 O        -7.2157736686        2.3174492613      -16.9163383586
 C        -9.4084615539        2.9928773507      -17.4207698012
 C        -7.0179181173        2.0711304616      -19.9476346407
 C        -9.3147471077        0.9917024709      -19.7945352048
 C        -6.0526489641       -4.2746709860      -18.6555571015
 C        -6.9635227103       -4.6471235339      -16.2179427585
 C        -0.3126266673       -2.5384468057      -12.8752073199
 C        -0.0426575160       -3.0041602719      -15.4173169963
 C         3.4661108896       -9.4153039031      -12.8691019432
 C         0.9568591675       -9.7071267190      -13.7076625028
 C         3.7226003997      -11.5561021426       -6.6297166368
 C         1.5877417036      -10.2638326139       -5.9423868629
 C         4.5316673177       -4.5048884841       -9.9477460458
 C         5.2004319283       -4.2146860662       -7.6427152520
 C         1.5385511663        0.3936893344       -6.3824951684
 C         0.3135649063       -1.0214092016       -4.6512016358
 C        -4.6893600272        2.3126172795       -5.5277210031
 C        -3.8325677417       -0.0474342499       -5.3016732620
 C        -8.5256761816       -1.0204558778       -1.9692548499
 C       -10.0540060822       -1.7601226655       -3.9607525814
 C       -10.0999293838        5.6923181701       -5.6067799092
 C       -10.0207365792        3.2815298269       -6.6684428543
 C        -2.4854365517        6.2885600688       -7.9382928353
 C        -4.2137143382        8.1320175511       -8.6890995584
 C        -6.6129853259        3.9742137727      -14.0568393774
 C        -8.1881348339        3.1216794439      -12.2964822396
 H        -6.8879825456        0.7256606091      -13.2663559012
 H        -5.0856914508        0.3880910419      -12.8775044310
 H        -5.6056928823        1.4584449842      -14.2178871656
 H        -5.6264701898        6.3953823242      -12.8524640963
 H        -4.3134995870        5.1431982908      -12.8652593473
 H        -4.9255801465        7.5035694333      -10.9914608269
 H        -3.4276710627        7.0822782126      -11.6031782986
 H        -7.2004177562        6.6001779433       -8.2798204109
 H        -6.3146484024        7.7419681581       -7.2639018422
 H        -7.9848778454        6.6412176131       -5.8349619129
 H        -6.6688150071        5.7077426050       -5.5057049266
 H       -10.7139532052        3.2469028160       -4.0088374638
 H        -9.6641098233        4.0441900719       -2.9247907028
 H       -10.0706083783        1.6514786788       -2.1500388381
 H        -8.3272725712        1.7804667125       -2.4087863470
 H        -8.5412003714       -0.2903103760       -6.0968865940
 H        -8.1291441569       -1.9768766748       -5.9863544629
 H        -6.4877686251       -1.4117593450       -7.5265521782
 H        -5.6464214211       -1.6172733447       -6.0376620971
 H        -2.1326442694        0.7341683234       -8.9450632699
 H        -2.7371318087       -0.6675633810       -8.2023734796
 H        -1.4928041176        0.8921845691       -6.1275055739
 H        -0.5368903307        1.0664155708       -7.5906613981
 H         0.2732042591       -3.6062904894       -7.5728047788
 H         0.3446416543       -3.7877709507       -5.7258921206
 H         1.8577569378       -5.5293625176       -6.5364719351
 H         2.7989530242       -4.1994544441       -6.0698487051
 H         5.5533048863       -6.7505077054       -6.8929232834
 H         6.1383319948       -7.2283121361       -8.4975691380
 H         5.7231190429       -9.3021476640       -6.9142628402
 H         4.9628323343       -9.3617636056       -8.4438203550
 H         0.5162781676       -9.7109180872       -8.6858922875
 H         0.6718298493      -11.5585165393       -8.7828137148
 H         0.2758778165      -10.8670153702      -11.0015385816
 H         2.0049616947      -11.2156952522      -11.1062582096
 H         0.3867160649       -7.3464701508      -14.6258166047
 H         1.9826415973       -7.4649431315      -15.3855510285
 H         1.1734976577       -5.2298781799      -15.6716002094
 H         2.6154147869       -5.1547105059      -14.4947085465
 H        -2.4361933283       -6.0083931224      -15.0828620650
 H        -1.9950516453       -4.6698505506      -16.0676618223
 H        -4.0291381001       -3.4704370188      -14.9687817527
 H        -4.6744872808       -5.1412584870      -14.6498119624
 H        -5.8510871916       -1.8988484544      -18.9349174984
 H        -4.4177013427       -1.4687082474      -17.9232558448
 H        -5.4428742074        0.5600235826      -18.4443837056
 H        -5.8373551500        0.1497729796      -16.7379682460
 H        -9.5646949053        3.0904645098      -16.3389599309
 H       -10.2462633611        2.5138924347      -17.8792788349
 H        -9.1575043162        3.8666057986      -17.9751539310
 H        -6.3634043664        2.6958661532      -19.3496237154
 H        -7.5182723288        2.8000501509      -20.6100793328
 H        -6.4084898597        1.4396226331      -20.6380210403
 H       -10.0043129114        0.3994231815      -19.2989825813
 H        -8.9692274284        0.3215660552      -20.5565503504
 H        -9.7754942607        1.8893504326      -20.3006286044
 H        -6.8080811467       -3.6421876128      -18.9756338963
 H        -6.2648242515       -5.3547497646      -18.7217036123
 H        -5.1813570612       -4.0552387338      -19.1993757799
 H        -6.9600158976       -4.2561094743      -15.2195036606
 H        -6.7899135481       -5.7019773504      -16.1955652205
 H        -7.9241679856       -4.4871417909      -16.6679897599
 H        -1.1041824545       -1.7979855424      -12.9494072368
 H         0.6233847138       -2.0399426679      -12.9779536587
 H        -0.2815695556       -2.9119094647      -11.8724880149
 H        -0.5278433648       -2.0641747369      -15.6014907072
 H        -0.2510566946       -3.6683652363      -16.1979120966
 H         1.0121847271       -2.7351813589      -15.3572634044
 H         4.0119863232       -9.2092484282      -13.7711048056
 H         3.5187086472      -10.4426546738      -12.6507489543
 H         4.1536439874       -9.0233182222      -12.0620076277
 H         1.2232282886       -9.5939378976      -14.8013882219
 H        -0.1557377289       -9.4705860472      -13.4205832470
 H         1.0622357885      -10.8226640663      -13.5296613040
 H         4.2009613274      -11.6138388219       -5.6016541036
 H         4.5272610009      -11.6620931871       -7.4588065883
 H         2.9828942117      -12.3461237071       -6.5455016820
 H         1.7684342272      -10.3579181462       -4.8719471149
 H         0.9617697925      -11.0514903289       -6.2710162806
 H         1.0102171579       -9.4091553519       -6.1901703021
 H         5.5945832436       -4.2375886048       -9.9730705419
 H         3.8243157909       -3.6910187346      -10.1582841450
 H         4.3119792924       -5.2660832767      -10.7089951797
 H         5.1662167973       -4.4652190475       -6.5289997893
 H         4.9712720667       -3.1467727760       -7.6721681833
 H         6.2757803613       -4.3340627687       -7.8955110951
 H         2.0492393419        0.5136231310       -7.2786876450
 H         2.4387187007        0.1941333619       -5.6670146378
 H         1.1568093839        1.3618451447       -5.9694006456
 H        -0.2438663391       -0.1829982229       -4.4254161035
 H         1.1792406479       -0.9694007738       -3.9702812155
 H        -0.2251246631       -1.9407050587       -4.5579505310
 H        -5.7493851847        2.4452341998       -5.3998438567
 H        -4.1775926089        3.0898896794       -6.1442308604
 H        -4.1159615330        2.2893441989       -4.6106164817
 H        -4.5307361115       -0.2521295850       -4.4917023065
 H        -2.9985348461        0.4927025888       -4.9438284690
 H        -3.4633631816       -0.9981425262       -5.7277190093
 H        -9.3146445080       -0.9094667596       -1.2744392148
 H        -7.8159446729       -0.2051646054       -1.8358098272
 H        -8.0420290430       -1.9706464679       -1.9059152240
 H       -11.0020981225       -1.3589861841       -3.5684068265
 H        -9.8664156557       -2.7659588923       -3.6510305190
 H       -10.2364664450       -1.7204523485       -5.0540475015
 H       -10.6966347189        5.8235802093       -4.6790291690
 H       -10.7979295124        5.7908704449       -6.3820151916
 H        -9.4828118034        6.5546219195       -5.6206371997
 H        -9.3719851257        2.3713322206       -6.8246603486
 H       -10.2872337415        3.7486018886       -7.6279726676
 H       -11.0091747132        3.0097531485       -6.1469553114
 H        -2.4250092821        5.2451761270       -7.5090310585
 H        -2.2361450003        6.9445223554       -7.1050606322
 H        -1.7428778435        6.3501055731       -8.8174213955
 H        -5.1651126253        8.3718372369       -9.1041194994
 H        -3.4065388452        8.4963340938       -9.3002642732
 H        -4.1828621940        8.7510774438       -7.8419137453
 H        -5.6080209674        4.1721879519      -14.3236267215
 H        -7.1427552354        4.8877812630      -14.2483173048
 H        -6.8632853826        3.2012104960      -14.7533352797
 H        -8.8406467143        3.7082854329      -12.9101722349
 H        -8.3758725482        3.0810586847      -11.2411135101
 H        -8.2579837840        2.0801912047      -12.8202596170
 Na       -5.8634186999        3.1192063915       -8.8877511624
 Na        1.9907392937       -5.9587585765      -10.7487582582
