232

 C       -20.7423894697       -7.8892868228       -4.4314970713
 C       -20.4706660150       -6.4496485848       -3.9320361399
 O       -19.7746684865       -6.2971536163       -2.9602694778
 C       -21.2948221988       -5.2694767910       -4.5869076940
 C       -20.3898316394       -3.9767751485       -4.6275076380
 O       -19.9361419277       -3.5380948588       -3.5915453700
 C       -19.9751477028       -3.2586974017       -5.9114864162
 C       -18.7322103561       -4.0135721901       -6.4478742469
 C       -17.7099903121       -4.1262313783       -5.3379643465
 O       -17.7743935230       -5.0397381316       -4.5800071837
 C       -16.4509610052       -3.0086969546       -5.0694755412
 C       -16.2743693269       -2.8899670341       -3.4694827403
 O       -17.1792339043       -2.3293823469       -2.8500036259
 C       -15.0337326956       -3.5149998645       -2.8153357355
 C       -14.8640685943       -3.3316110369       -1.2527013763
 C       -15.5362714343       -4.4322450725       -0.4422990945
 O       -16.4933247164       -5.0815095299       -0.8380851261
 C       -14.7675805515       -4.8737001970        0.8181650501
 C       -13.3083464095       -5.4838279114        0.3831763491
 O       -12.3400911191       -5.1677624953        1.0116150539
 C       -13.3535881158       -6.5821200528       -0.6900122250
 C       -12.1460065024       -6.3782617264       -1.6893914803
 C       -12.2898574679       -7.2783647174       -3.0619701026
 O       -13.0958671967       -7.0430383142       -3.9376794909
 C       -11.2981783995       -8.4917563657       -3.0315689272
 C        -9.7853033240       -7.7829077292       -2.8930168430
 O        -9.4165363870       -7.5451557451       -1.7942463178
 C        -8.9470025713       -7.7317265688       -4.1419424199
 C        -7.5991249685       -7.1390859855       -3.9414443077
 C        -7.6902067610       -5.6062437604       -3.8407722332
 O        -8.7062154598       -5.0359410660       -3.6722296496
 C        -6.3625379957       -4.7490971258       -3.8408505115
 C        -5.4921724777       -5.0207497113       -5.1059820111
 O        -5.7003669235       -5.9556061773       -5.8211690756
 C        -4.0852877754       -4.2532841351       -5.2815086842
 C        -3.4594178960       -4.9914528671       -6.5134415361
 C        -2.5087549976       -4.1832580411       -7.3203367742
 O        -2.9324626176       -3.4595630859       -8.2761858024
 C        -0.9893979963       -4.1168130834       -7.1381406462
 C        -0.3475930648       -4.8551203254       -8.4679100272
 O         0.6004565970       -5.6280993644       -8.3972256830
 C        -1.1587859328       -4.8183981762       -9.8899524406
 C        -0.4545095306       -5.8078420516      -10.9415845430
 C         0.5352233516       -4.8838805404      -11.7703583048
 O         0.2822641487       -3.7077228226      -11.9565061367
 C         2.0113493579       -5.3632638574      -12.1792787571
 C         2.5826704426       -4.6199545027      -13.4696469401
 O         2.6473180909       -5.2023532660      -14.5336504720
 C         2.7679487835       -3.1777618171      -13.1989357195
 C         3.2159208601       -2.3522294074      -14.4097431000
 C         2.9941388675       -0.8761914443      -14.0511496653
 O         2.0628180802       -0.3220824801      -14.5132826810
 C         4.0641563922       -0.0999331154      -13.1542544482
 C         4.4606263049        1.1183256213      -13.9390002327
 O         5.3542904003        0.9542530803      -14.7791170517
 C         3.5335731936        2.3686099843      -13.9842088977
 C         4.0431795241        3.3266722713      -12.9471324014
 C         5.3240687724        3.9676815509      -13.3717075430
 O         5.8458299476        3.6464932743      -14.4051571727
 C         6.1269092571        5.1743614956      -12.5809636821
 C         6.1462116088        6.3497602999      -13.7928326556
 O         5.1151011614        6.8050253551      -14.2394225587
 C         7.5351759973        6.8846689179      -14.2438697912
 C         7.5402379653        7.2255305048      -15.7515881666
 C         7.1655142971        6.0565026893      -16.6583149602
 O         7.3949579016        4.8663943168      -16.3896657468
 C         6.5003936372        6.3569622351      -17.9576568966
 C         7.7747349948        6.1424172219      -19.0157926382
 O         8.2999742683        5.0938983812      -18.8594105987
 C         8.3536472602        7.1025534880      -20.0799435696
 C         9.1827199735        6.2261357761      -21.1446686482
 C         8.3548020145        5.3723442234      -22.1211447237
 O         7.3094719600        5.7982746174      -22.5343215501
 C         8.9445997605        3.9846543178      -22.5114600815
 C         8.8603576359        3.0491541268      -21.2831515937
 O         7.7782503417        2.6205368874      -20.9372990347
 C        10.0906923728        2.6516545189      -20.3158993622
 C         9.7238461772        1.5371603996      -19.2296310905
 C         8.3150291371        1.7149874845      -18.5809682058
 O         8.2958425545        2.3866215904      -17.5509992525
 C         7.0631346169        0.7251574183      -18.8869019769
 C         5.8410816680        1.5810654237      -19.1032455610
 O         5.3701060410        2.4053810669      -18.2731209972
 C         5.0157487668        1.4312878805      -20.4321286188
 C         7.4667222742       -0.2279679474      -19.9697901831
 C         6.6165469930       -0.1043877006      -17.4952052082
 C         7.9606534891        3.5314725882      -23.6613631361
 C        10.4607469344        4.0890667866      -22.9693509018
 C         5.4200235507        5.3721839589      -18.4402418049
 C         5.8764463595        7.7081355613      -18.1400125946
 C         5.3578719490        5.6997512472      -11.3723366233
 C         7.5075090189        4.6409315659      -12.2358748913
 C         3.3609073623        0.0856773586      -11.7429066884
 C         5.3451618144       -0.9017201241      -12.8188547006
 C         2.8969729612       -4.9630396349      -10.9929169635
 C         2.3196633356       -6.8666892471      -12.5569598250
 C        -0.4480425460       -2.5908413169       -7.0315941506
 C        -0.4220015293       -4.8090944048       -5.8984507918
 C        -6.6061343951       -3.2593814691       -3.7771871640
 C        -5.5858190993       -5.1466224617       -2.5480039434
 C       -11.5488177321       -9.2393739107       -1.6996085914
 C       -11.6582305993       -9.4213725324       -4.2444098946
 C       -14.5268073977       -3.5049770667        1.7237328519
 C       -15.4511980165       -5.9422676734        1.6484302098
 C       -15.2148296053       -3.5929572680       -5.7145305335
 C       -16.8525174216       -1.7067541939       -5.7781219836
 C       -21.8601081439       -5.6553120412       -6.0296495385
 C       -22.5823910987       -5.1689859614       -3.6648944949
 H       -21.1358796502       -8.3116181127       -3.5685400316
 H       -19.7759853972       -8.2998456518       -4.7778032534
 H       -21.4214351250       -8.0663579579       -5.2975843209
 H       -19.5742296266       -2.2426200736       -5.6370146803
 H       -20.7908488064       -3.0927904866       -6.6810315651
 H       -18.2629412136       -3.5908103313       -7.3679681957
 H       -19.0054900659       -5.0195234343       -6.7189311066
 H       -14.2159885247       -3.1061594266       -3.3414417608
 H       -15.0349354457       -4.6170205075       -3.0420381309
 H       -15.1554002364       -2.4443105928       -0.7807280182
 H       -13.7731349345       -3.4550851715       -0.8893257350
 H       -14.2877653165       -6.5218239427       -1.2354640170
 H       -13.3378817556       -7.4985094277       -0.1421646701
 H       -11.2557659355       -6.4334432814       -1.0852301116
 H       -12.1366448126       -5.2557703087       -1.9449682836
 H        -9.3916931046       -7.2013403455       -5.0506077620
 H        -8.8809203404       -8.8219432934       -4.3804572446
 H        -6.8095856753       -7.4599509870       -4.6897025569
 H        -7.3037056605       -7.4385928888       -2.8923651341
 H        -3.5377676766       -4.3768204487       -4.3841556068
 H        -4.3048785252       -3.2801116164       -5.5599864574
 H        -4.2536114481       -5.2449358463       -7.2410724760
 H        -2.9720390017       -5.8786785972       -6.1305918356
 H        -1.1042885008       -3.8253127110      -10.2383548913
 H        -2.2627018134       -5.1297105486       -9.8318418950
 H        -1.2864147818       -6.2236050618      -11.6008054684
 H         0.0457793240       -6.5924438015      -10.3629118332
 H         3.4574952304       -2.9080145407      -12.3795875951
 H         1.7638157992       -2.8191574387      -12.9629800150
 H         2.6356337230       -2.5163344367      -15.3372639413
 H         4.2414103922       -2.5201864810      -14.6537420500
 H         2.4625234985        2.0794984022      -13.6840764416
 H         3.5281075761        2.9372383801      -14.9650776408
 H         4.3961572335        2.8709410720      -12.0294605722
 H         3.2945032621        3.8732521143      -12.4916097543
 H         8.4229395574        6.2572519737      -14.0674293819
 H         7.8500290355        7.8285527107      -13.7376924328
 H         8.6007888326        7.6126236609      -16.0010381113
 H         6.7695422636        8.0530226111      -15.9148929216
 H         9.1104237233        7.7492112670      -19.5675694747
 H         7.4943920817        7.6269616683      -20.5601239012
 H         9.9758884443        5.6825552717      -20.6052110016
 H         9.6629916435        6.9155504302      -21.8269806676
 H        10.3594758671        3.6030489749      -19.7934225479
 H        11.0633700825        2.6498085790      -20.8750845861
 H        10.4047991026        1.5873633458      -18.3727946247
 H         9.7192177728        0.6381190094      -19.8230112348
 H         4.4174006053        2.2826804904      -20.5233975402
 H         4.3335292563        0.5542972856      -20.4390208655
 H         5.5692227571        1.3776097771      -21.4193962424
 H         6.7406015068       -0.4458046852      -20.7137580972
 H         7.8562456934       -1.1877261927      -19.6378562753
 H         8.2429129484        0.1384065009      -20.5838170074
 H         7.1984934857       -0.9768229907      -17.3865243698
 H         5.5636506752       -0.2955234652      -17.4905515213
 H         6.8387668097        0.4649501313      -16.5748765981
 H         7.8740926394        2.4847045457      -23.7746945901
 H         8.2778618328        3.9964897329      -24.5691348455
 H         6.9546760067        3.8018485677      -23.1980770112
 H        11.0012083135        3.0701390454      -22.8805517366
 H        10.9367998521        4.9395907830      -22.4022524271
 H        10.3931780882        4.3725602524      -24.0740473836
 H         4.6141324164        5.4497333982      -17.7442294563
 H         5.8643168815        4.4086160874      -18.3204472684
 H         5.2086728857        5.4216741736      -19.5451144695
 H         6.6516752969        8.4924564563      -17.9837604012
 H         5.0560707161        7.8782260942      -17.5167227666
 H         5.5092025569        7.7796643965      -19.1937825003
 H         5.7731032252        6.6233625898      -11.0512188047
 H         5.5104455031        5.0353703040      -10.4561626397
 H         4.3292135582        6.0089460845      -11.4645053754
 H         7.4438207268        3.6424308918      -11.8419995928
 H         8.0448079537        5.3169023316      -11.5590186779
 H         8.1993814241        4.4570237538      -13.1245028029
 H         3.9920954981        0.7493289313      -11.2298701762
 H         3.2559966430       -0.8505703116      -11.2479105886
 H         2.3661022192        0.4909620563      -11.9038868251
 H         5.2186225453       -1.7486592371      -12.0972011281
 H         6.0128826208       -0.2311979560      -12.3139744416
 H         5.6919052727       -1.1818261646      -13.8421244047
 H         2.8342612482       -5.7798779202      -10.2309670453
 H         2.4964422350       -4.0579571856      -10.6649094283
 H         3.9175958375       -4.8657633025      -11.2593604944
 H         2.1996427758       -7.5545145021      -11.6726746545
 H         3.3839252189       -6.9114735586      -12.8033733330
 H         1.8807123589       -7.2435755536      -13.4647298931
 H        -0.7477219624       -2.1944223324       -6.0643129281
 H        -0.9112750886       -1.9952000758       -7.8044623317
 H         0.5817184316       -2.5538229761       -7.0751989301
 H        -0.6506561681       -5.8347618624       -5.8941230885
 H        -0.8111928491       -4.3997874861       -4.9184900071
 H         0.6677323199       -4.7209192000       -5.7965399868
 H        -6.9412958948       -2.9105424744       -4.8015524598
 H        -5.6547863818       -2.6830207587       -3.6118639424
 H        -7.2683467974       -2.9667324920       -2.9661474712
 H        -6.2097305653       -4.7213636981       -1.7888325362
 H        -4.6051348947       -4.7546629934       -2.5034261504
 H        -5.6216427454       -6.2589740473       -2.3611025340
 H       -12.6517033890       -9.2350884738       -1.4968708290
 H       -10.9996632280       -8.8513096315       -0.8571400304
 H       -11.2800303342      -10.3042525929       -1.7487669890
 H       -12.7329015211       -9.6437849371       -4.2524956777
 H       -11.1597046852      -10.4302612209       -4.2409091467
 H       -11.2060572768       -9.0781192071       -5.1156430179
 H       -15.4845303245       -2.9004383181        1.7823859721
 H       -13.7199196548       -2.8880139727        1.3522481817
 H       -14.3451572779       -3.7928843117        2.7441738463
 H       -15.9041915126       -5.4883163383        2.5692041531
 H       -14.6854835747       -6.6614267114        1.9629611790
 H       -16.2744258038       -6.3589209694        1.0683944631
 H       -14.6518154106       -4.2990568373       -5.0839551290
 H       -14.5884527920       -2.8175144656       -5.9361386536
 H       -15.4731992024       -4.1594766878       -6.6467596887
 H       -17.6508720923       -1.0999511425       -5.1914635690
 H       -17.1851620361       -1.8707725563       -6.7671907433
 H       -15.9353560284       -1.1725976080       -5.8863557594
 H       -21.1532872172       -5.9267758231       -6.8732795672
 H       -22.4130810090       -4.8001827598       -6.2974356965
 H       -22.5732534714       -6.5075501510       -5.8316984302
 H       -23.4004869948       -4.9547882761       -4.2402237540
 H       -22.4775777137       -4.5401751687       -2.7913154075
 H       -22.7872932962       -6.1703269901       -3.2156454731
 Na      -18.2643668798       -4.7861894597       -2.5020803144
 Na        6.6373683309        2.6400616060      -16.2584876503
