232

 C        -5.4625287207        1.2950050019      -13.1416578234
 C        -5.8642750227        2.4076286600      -12.0747976015
 O        -5.5680754869        2.2806235680      -10.9114766201
 C        -6.6793287476        3.7328649699      -12.5434932575
 C        -6.0245627993        4.9417248472      -11.7494099611
 O        -6.4124137005        5.0789227078      -10.6082690409
 C        -4.7931504800        5.7873083140      -12.2209472295
 C        -4.5949490769        6.8677672344      -11.1065518450
 C        -3.9258970498        6.0226896852       -9.9049511632
 O        -3.4172904281        4.9488096626      -10.1405453245
 C        -3.7295532783        6.7126620947       -8.5612740084
 C        -4.9380940862        6.0667785803       -7.6790619756
 O        -4.8232945041        4.8604573056       -7.6364767599
 C        -6.2331350673        6.6917777792       -7.1597888905
 C        -7.1323767082        5.8710446663       -6.1135062511
 C        -8.1882906691        4.9400720209       -6.7310285653
 O        -8.0180259075        4.5637747883       -7.8706523869
 C        -9.3090559837        4.4251383421       -5.7792135442
 C        -8.7285963863        3.7981735682       -4.5266176360
 O        -7.4938594942        3.6760936411       -4.3873647812
 C        -9.7223629738        3.3478485366       -3.4237653862
 C        -9.2359479086        2.0349088014       -2.7827824669
 C        -9.5927897399        0.8852850352       -3.7495514966
 O       -10.4865333883        0.8418587936       -4.5530390665
 C        -8.8112970859       -0.5258361060       -3.5569038525
 C        -7.6995017306       -0.6253914433       -4.5887468906
 O        -6.5218480740       -0.5555547549       -4.2668190977
 C        -8.0302542324       -0.8705295966       -6.0083517956
 C        -6.8390056041       -0.8195820024       -6.9692448853
 C        -6.1353628979        0.5499833164       -7.1579058919
 O        -6.6536249201        1.2589432215       -8.0102377575
 C        -4.7634422585        0.8964489748       -6.3857503431
 C        -3.7295067918        1.2544243204       -7.6495950975
 O        -3.9214183675        2.2737252387       -8.2747063726
 C        -2.4222016728        0.3257713122       -8.0361223270
 C        -1.0686437945        0.4205596998       -7.3186358002
 C        -0.5109311476       -1.0611910593       -6.9705557164
 O        -1.1586544375       -2.0700124189       -7.1929546852
 C         0.8244235463       -1.0850618014       -6.0786069429
 C         1.7323645758       -2.2067830087       -6.4982622667
 O         2.7837320988       -2.0345976344       -7.1087558984
 C         1.3654912289       -3.6500437898       -6.0096309153
 C         2.3284767283       -4.6766245164       -6.6052202661
 C         2.6994174801       -4.6567337117       -8.0947557982
 O         1.8388348057       -4.5276073245       -8.9307774500
 C         4.1472460500       -5.0324737268       -8.5817244008
 C         4.2749580639       -6.5566553660       -8.5835494904
 O         3.5387093341       -7.2498142928       -9.3261185687
 C         5.3795472661       -7.1852162771       -7.7304418886
 C         4.9264023193       -8.6305075748       -7.3731697427
 C         3.5297856627       -8.7258275460       -6.9827637672
 O         2.8667800106       -7.7735338611       -6.5824710394
 C         2.9342370792      -10.0634837025       -7.1320943269
 C         2.6621030769      -10.3274686431       -8.7755697197
 O         3.5874027657      -10.3763639159       -9.4834635342
 C         1.1410370266      -10.4923617708       -9.1787167286
 C         0.7597597542      -10.5330480185      -10.6874973862
 C         1.1034041825       -9.1812946672      -11.3245267422
 O         0.8235602532       -8.0986051682      -10.8892548515
 C         2.1238831940       -9.2915133908      -12.6361559749
 C         2.1534624276       -7.8268549132      -13.0965800006
 O         2.9565680601       -7.0682808976      -12.5553774087
 C         1.0984171348       -7.3360384099      -14.3647365613
 C         1.1506542626       -5.7273752471      -14.7000969203
 C         0.5291402056       -4.9204893390      -13.5665398169
 O         0.7111497073       -5.1985956920      -12.4276598648
 C        -0.3170243918       -3.6264141798      -13.8662322496
 C        -1.8301162378       -4.1231295339      -13.9157056488
 O        -2.3114588240       -4.3843964557      -12.8452278330
 C        -2.4822367684       -4.4682329025      -15.2792024046
 C        -4.0399632460       -4.5557253334      -15.1768580663
 C        -4.7444692213       -4.8174595775      -16.5201660626
 O        -4.1027512802       -5.4100564390      -17.3743210638
 C        -6.0437160890       -4.0007880475      -16.8485112789
 C        -5.7832389585       -2.4547531037      -16.7403782635
 O        -5.7304933557       -2.0408841513      -15.5736183933
 C        -5.2311174044       -1.5085751831      -17.9936918685
 C        -5.8837134139       -0.0877534983      -18.0627590319
 C        -7.3708352279       -0.2281563249      -18.4755251501
 O        -7.8616142563       -1.3451925417      -18.6287218917
 C        -8.2402399290        1.1335870902      -18.7395057906
 C        -8.3093125704        2.2774864695      -17.6277493375
 O        -7.3260615046        2.6076132068      -16.9498664899
 C        -9.5914987970        3.0961267405      -17.4827146531
 C        -7.4656762704        1.7928339523      -19.9818615430
 C        -9.5954726337        0.6707015063      -19.1696787307
 C        -6.5508791541       -4.5430535220      -18.2211503613
 C        -7.0640720665       -4.3156780726      -15.6882867445
 C        -0.1739760170       -2.7433565442      -12.6415365640
 C         0.2474063842       -2.8340064279      -15.0647722131
 C         3.3942903591       -9.7669867708      -12.1669532726
 C         1.4407732745      -10.2226320269      -13.6667462848
 C         3.8140169080      -11.1848240562       -6.7680541476
 C         1.6162527499      -10.1584763623       -6.2702269825
 C         4.4031759800       -4.4372825455       -9.9872208180
 C         5.0625459745       -4.2220619906       -7.5846177159
 C         1.6024324694        0.2421191661       -6.2034762336
 C         0.3841253774       -1.2367113672       -4.5754541102
 C        -5.2223545327        2.1521157642       -5.6198786722
 C        -4.0517405708       -0.2069195340       -5.5789127866
 C        -8.0649783941       -0.5168974500       -2.1467938764
 C        -9.7389423496       -1.6883670564       -3.7186231931
 C       -10.3371405387        5.5714216914       -5.3789418225
 C        -9.9921927540        3.2665949651       -6.6236282004
 C        -2.4006998136        6.3329218382       -7.9501603079
 C        -3.8351988516        8.2494510415       -8.7565572340
 C        -6.6144775614        3.8787126368      -14.0840742184
 C        -8.1857775964        3.4175338327      -12.2161379826
 H        -6.3784592469        1.0913488352      -13.8050765613
 H        -5.0180269706        0.3731822027      -12.7141481904
 H        -4.6963448755        1.7857400191      -13.7469236578
 H        -4.9560099023        6.2628629016      -13.2492570955
 H        -3.9334940187        5.1313682138      -12.2316881765
 H        -5.4237802336        7.5072938404      -10.8385253873
 H        -3.9465888863        7.6246780289      -11.4246829266
 H        -6.7992886676        6.7307644731       -8.1204309488
 H        -6.4235130602        7.7079099786       -6.7650560392
 H        -7.5956913027        6.4758980222       -5.3744052753
 H        -6.5430860886        5.2902587906       -5.4630231436
 H       -10.6794113357        3.0879148832       -4.0094773989
 H        -9.9584063162        4.0953891659       -2.6945244916
 H        -9.7321090374        1.7515627334       -1.8366008136
 H        -8.1216453701        1.9585345180       -2.6555926376
 H        -8.9030945515       -0.2202915095       -6.3400314598
 H        -8.4321907595       -1.8442651722       -6.2029641833
 H        -7.2737105143       -0.9969747664       -8.0394048628
 H        -6.0115735569       -1.5569681211       -6.9060184330
 H        -2.2666710113        0.6944181564       -8.9635481945
 H        -2.6602927124       -0.7469278496       -8.1960055148
 H        -1.1787571211        1.0180115764       -6.4019544529
 H        -0.3747458145        0.9320830494       -7.9653756090
 H         0.3060008407       -3.8001088014       -6.2746821966
 H         1.4048854069       -3.8933660010       -4.8755699170
 H         1.7983720647       -5.6018740457       -6.3665564379
 H         3.2061185299       -4.8714972191       -6.0436439513
 H         5.7892000553       -6.5586602598       -6.9211130446
 H         6.2534351395       -7.1494464681       -8.3690484659
 H         5.5819927321       -9.0144456976       -6.5848339229
 H         5.1992583325       -9.2088156659       -8.2544693222
 H         0.6159295966       -9.6823951656       -8.6814966868
 H         0.8933716132      -11.4480788927       -8.5427736091
 H        -0.3459901929      -10.6519462207      -10.8261481592
 H         1.3182246599      -11.3221834387      -11.2405723601
 H         0.0715921565       -7.4897307730      -14.3002778413
 H         1.2497966880       -7.9206265226      -15.2829499620
 H         0.5342617558       -5.5397645631      -15.5737921302
 H         2.2306104991       -5.4970559466      -14.9154281920
 H        -2.0307580552       -5.4076121853      -15.6498446071
 H        -2.2452985798       -3.7183245489      -16.0894259818
 H        -4.5155037151       -3.6660291919      -14.7474371630
 H        -4.3170275673       -5.3065808067      -14.3943565011
 H        -5.2788091689       -1.9564752450      -19.0481424434
 H        -4.1644539163       -1.5142339439      -17.6887327456
 H        -5.3172160555        0.5188137674      -18.7507081665
 H        -5.8904743885        0.3531335122      -17.1371610319
 H        -9.5236449443        3.5845412007      -16.5036566344
 H       -10.5185659651        2.5621429847      -17.6538347129
 H        -9.3813609684        3.8059292531      -18.2888212877
 H        -6.3939396287        1.8386317804      -19.9649389311
 H        -7.8342318170        2.8040032966      -20.1556802679
 H        -7.6058055222        1.1945074026      -20.9400768105
 H       -10.2025581678        0.4657772811      -18.3268708906
 H        -9.4372957788       -0.2233039030      -19.7732320851
 H       -10.0443345415        1.3916988798      -19.9007242133
 H        -7.5023038407       -4.1228150065      -18.4515464299
 H        -6.7157844313       -5.6190438688      -18.0608368949
 H        -5.7919512646       -4.3463134360      -18.8416817021
 H        -6.6385910058       -4.0825465489      -14.7196849238
 H        -7.2028145002       -5.4040349693      -15.6667672674
 H        -7.9850253065       -3.8053958610      -15.8293607926
 H        -0.5772082789       -1.7432735307      -12.8513449542
 H         0.8793038251       -2.6283043188      -12.3228456627
 H        -0.7108486363       -3.1558564963      -11.7826871714
 H        -0.2997638286       -1.8187486395      -15.1265696854
 H         0.0058362218       -3.4582736461      -15.9150322868
 H         1.3572199335       -2.6268992486      -14.9616504684
 H         4.1210279805       -9.8918932634      -12.9341882767
 H         3.3541743684      -10.6430038623      -11.5453877072
 H         3.9524454294       -9.0489809242      -11.5519615233
 H         2.1777609216      -10.2924419383      -14.5187734849
 H         0.4760109612       -9.9644546332      -14.1341504771
 H         1.2823306543      -11.2573529188      -13.2959082123
 H         4.0806505114      -11.1485461915       -5.7007991099
 H         4.6407156645      -11.1574758901       -7.4685301503
 H         3.4101148703      -12.0868033316       -7.0451079349
 H         1.8484555004      -10.2293178895       -5.1819899215
 H         1.1890092512      -11.0868504419       -6.5642485956
 H         0.8512297782       -9.4102888606       -6.4025324966
 H         5.4450279592       -4.1256715115      -10.1008225782
 H         3.6569188186       -3.6652541395      -10.1636333044
 H         4.3417587807       -5.2324054950      -10.7357580848
 H         5.1416306969       -4.8031233767       -6.5278301699
 H         4.7003838778       -3.2427648570       -7.4533556046
 H         6.1546778507       -4.0768744972       -7.8052835634
 H         1.6957148334        0.5421581188       -7.2367906719
 H         2.6674334596        0.1195393836       -5.8810850848
 H         1.4202119746        1.0619394028       -5.5425241678
 H        -0.2163450590       -0.4494639695       -4.3619018811
 H         1.2474541094       -1.3142126382       -3.8682078081
 H        -0.1839658233       -2.1223895862       -4.5665778183
 H        -5.5175048825        1.7148939326       -4.6835850164
 H        -6.0583609579        2.5609519215       -6.2176815340
 H        -4.4557486089        2.8951648372       -5.4624561331
 H        -4.3694779372       -0.2584944328       -4.5428362357
 H        -3.0588908046        0.1418014332       -5.5133760192
 H        -4.1598235014       -1.1682557691       -6.1154678296
 H        -8.7185123327       -0.2879736201       -1.3789097847
 H        -7.2900617457        0.2187235488       -2.1916365886
 H        -7.6811313694       -1.5393287854       -2.0496783909
 H       -10.3156102326       -1.8142311482       -2.7773248229
 H        -9.1988476948       -2.5878582844       -3.9339262683
 H       -10.3778905424       -1.5203380913       -4.6220246039
 H       -11.4059765727        5.3028381416       -5.2886446046
 H       -10.2248748451        6.4749948475       -5.9473267124
 H       -10.1534457397        5.9148791065       -4.4068976923
 H        -9.2070517280        2.5553552872       -6.7071305583
 H       -10.2819669840        3.6346048771       -7.5418712104
 H       -10.9098746890        2.9137310883       -6.1574812777
 H        -1.9054632443        5.6878063276       -8.6412725646
 H        -2.5830220312        5.8762443427       -7.0214225413
 H        -1.6975309357        7.1004830685       -7.7580029741
 H        -4.6345113463        8.6295411474       -9.2781132938
 H        -2.9678455843        8.6164152228       -9.3585321918
 H        -3.6821931591        8.7763865476       -7.8332300382
 H        -5.6558793728        4.1723730024      -14.4889805804
 H        -7.3575550848        4.6029045674      -14.4700872788
 H        -6.9647013353        2.9745030307      -14.5934158122
 H        -8.7027916083        4.3015789418      -12.0977045605
 H        -8.3375099574        2.9025157343      -11.3232248263
 H        -8.4863030851        2.9574728738      -13.1791552654
 Na       -5.9113156644        3.3456977982       -9.0217515177
 Na        1.7439236509       -6.1865098941      -10.6017326659
