232

 C        -5.1904614199        1.4729127403      -13.2168181247
 C        -5.8578955390        2.3668988993      -12.0790748851
 O        -5.8686911993        2.1441339659      -10.8905609071
 C        -6.5699840522        3.7719784522      -12.5882392529
 C        -6.0374887366        4.8899711048      -11.6586359284
 O        -6.4518123641        4.9946751022      -10.4931331384
 C        -5.1140215723        5.9615343788      -12.2699234790
 C        -4.4706518057        6.8649128686      -11.2919444747
 C        -3.9170259842        6.0932027742      -10.1226054555
 O        -3.4340017445        4.9480393954      -10.1596472762
 C        -3.8493252472        6.7503750440       -8.6319356756
 C        -4.9272538756        6.0694107001       -7.6950597781
 O        -4.8623662778        4.8993401637       -7.2687759653
 C        -6.0745185518        6.8373746258       -7.2159667174
 C        -7.0468178542        6.0697398978       -6.2637384774
 C        -8.0332637581        5.0478391602       -6.8111273307
 O        -7.9466272766        4.6967036651       -8.0024736586
 C        -9.1656513120        4.4806461242       -5.8587214579
 C        -8.6496644326        3.8346002915       -4.4723398043
 O        -7.4700605151        3.7824450386       -4.3116831626
 C        -9.7309654555        3.4047940849       -3.4464077110
 C        -9.3552614554        2.1589021590       -2.6902511735
 C        -9.7406072951        0.8131293922       -3.5787303671
 O       -10.6501954948        0.8107909922       -4.4024304624
 C        -8.7972198687       -0.4731951857       -3.4028193906
 C        -7.7625767758       -0.4394530834       -4.6236488935
 O        -6.5781846580       -0.2902827637       -4.4193861684
 C        -8.1303463680       -0.4590264540       -6.1698431077
 C        -6.9122015033       -0.9039155243       -7.0667173216
 C        -6.0980070123        0.4353288985       -7.3401727963
 O        -6.6261645254        1.2429370574       -8.1067120730
 C        -4.6925192885        0.7315696560       -6.6800084713
 C        -3.7210555099        1.0678860603       -7.8372651232
 O        -3.7423311955        2.0756427805       -8.5280651378
 C        -2.5534099319        0.1579250323       -8.0304318845
 C        -1.2371013096        0.4289178670       -7.1984650866
 C        -0.4964349658       -0.9646411858       -6.9580874152
 O        -1.0132502567       -2.0297643047       -7.2048649838
 C         0.7964571025       -1.0637198640       -6.1198224785
 C         1.7160837780       -2.2141041579       -6.6553555481
 O         2.6470698730       -2.0129806943       -7.4225878053
 C         1.3841516570       -3.6093845113       -6.0815820281
 C         2.3303975412       -4.7952811289       -6.4947678475
 C         2.5608649336       -4.7277891857       -8.0333312836
 O         1.5820953259       -4.7664343530       -8.7798845013
 C         4.1786928963       -4.7964904419       -8.5565637271
 C         4.4373467626       -6.3057719158       -8.6094452171
 O         3.8545066474       -6.9339306832       -9.4636433893
 C         5.3029663834       -7.0829046495       -7.5973096979
 C         4.9899062047       -8.5886530297       -7.6364200042
 C         3.5879721621       -8.8363246363       -7.1097115588
 O         2.9527217922       -7.8514738388       -6.7908265497
 C         2.8980211495      -10.1459356707       -7.0650045111
 C         2.4730631439      -10.3581775298       -8.5951188456
 O         3.3385086772      -10.6071880687       -9.4196800174
 C         0.9532727889      -10.4899940499       -9.1208905890
 C         0.8470264430      -10.7246572293      -10.6275201477
 C         1.0452777959       -9.3672981710      -11.3914787482
 O         0.5348406095       -8.3289955064      -10.9883757402
 C         2.0883214248       -9.3121910839      -12.6419734768
 C         2.1317181185       -7.8170380075      -13.2219708822
 O         2.9918138504       -7.0326222513      -12.9515772197
 C         0.9275239519       -7.4314134465      -14.0218034850
 C         1.0609419759       -5.9894223033      -14.5129715470
 C         0.7219969767       -4.9860188173      -13.3649832268
 O         0.8885322669       -5.1682063049      -12.1618676911
 C        -0.1721833995       -3.7555769151      -13.7333743656
 C        -1.7043840680       -4.1884416876      -13.9433559234
 O        -2.4134654519       -4.3547286010      -12.9847396840
 C        -2.3843029128       -4.2056151334      -15.4022838957
 C        -3.9378800660       -4.4657848757      -15.1840790580
 C        -4.7763432479       -4.7426266671      -16.3899147193
 O        -4.2782205842       -5.3954274344      -17.2732275444
 C        -6.1268069040       -3.8376915622      -16.6705335634
 C        -5.6789748435       -2.3431280517      -16.6809575515
 O        -5.4438420640       -1.7811251714      -15.6308006995
 C        -5.4013264304       -1.7231991003      -18.0051926885
 C        -6.0208251045       -0.3498321591      -17.9159272899
 C        -7.3706764474       -0.3624244140      -18.5094792197
 O        -7.8727170536       -1.3981622303      -18.9188714076
 C        -8.2597914579        0.8993965498      -18.7143278737
 C        -8.1973794761        1.9935421194      -17.5734301265
 O        -7.1622672776        2.1863082393      -16.9897954938
 C        -9.4419575323        2.9594649393      -17.5693737466
 C        -7.7149064999        1.5918880855      -19.9751530631
 C        -9.6694732865        0.4124945400      -18.9523444710
 C        -6.7480927093       -4.2996827797      -18.0212498293
 C        -7.2464547512       -4.0151553840      -15.5919200690
 C        -0.1295880881       -2.7474799253      -12.5034330930
 C         0.4503092608       -3.1414287635      -15.0353083027
 C         3.5386898475       -9.7139053084      -12.3346831322
 C         1.5538085456      -10.3164792778      -13.7423668760
 C         3.7727592276      -11.3922554152       -6.6786616164
 C         1.5945263615      -10.1505283350       -6.2120649416
 C         4.1736811023       -4.1935093158       -9.9647554030
 C         5.1132613269       -3.9967105317       -7.6587202806
 C         1.6557539390        0.3035196851       -6.1194720836
 C         0.3311783552       -1.2737945434       -4.6513049978
 C        -4.8544631134        2.0352858648       -5.8352440490
 C        -4.0478773919       -0.4505634644       -5.7461226667
 C        -8.0256443298       -0.6609771974       -2.0908472869
 C        -9.6943281845       -1.7555514419       -3.5843219672
 C       -10.0529332571        5.7103266429       -5.6002097724
 C       -10.0764229866        3.4644944205       -6.6308224031
 C        -2.5440687659        6.4328187078       -7.9461136917
 C        -4.1255771196        8.2854122434       -8.5119777567
 C        -6.4101360770        4.1824970354      -13.9794199632
 C        -8.0702076024        3.6218614831      -12.1155867271
 H        -5.9535814659        1.1395370434      -13.8668064899
 H        -4.6873546553        0.6121807335      -12.7902219557
 H        -4.4207365042        2.0708122229      -13.7462159201
 H        -5.6206828192        6.5842999397      -12.9665660493
 H        -4.3023644735        5.3748561435      -12.7965088719
 H        -5.0275829212        7.7242490871      -10.9078488296
 H        -3.6718700489        7.4813264431      -11.7977197915
 H        -6.6320007367        7.3656225653       -7.9908011041
 H        -5.7959702010        7.6572403373       -6.5847352588
 H        -7.5964528867        6.7046269071       -5.4862933401
 H        -6.4250067932        5.4579921386       -5.5063192399
 H       -10.6551908076        3.2449606336       -3.9306637055
 H        -9.7950283203        4.3023629038       -2.7632717668
 H        -9.9492549036        1.9627024105       -1.7925771200
 H        -8.3103133318        2.1399461684       -2.4392833675
 H        -8.3862475159        0.5472489361       -6.3667485101
 H        -9.0479280170       -0.9576022600       -6.5644834048
 H        -7.1987280529       -1.2058123706       -7.9995256941
 H        -6.2398392062       -1.6340141980       -6.6501169831
 H        -2.2959017835        0.0361899858       -9.1535796643
 H        -2.8400382739       -0.8356770912       -7.7001323182
 H        -1.3964801021        0.8677052457       -6.2201912799
 H        -0.5685954307        1.1559436503       -7.6883895062
 H         0.2803578971       -3.7151003492       -6.2935196886
 H         1.4559060719       -3.4999713450       -5.0194633176
 H         1.8347868797       -5.7415057313       -6.2156103573
 H         3.2739237037       -4.9701092522       -5.9661802704
 H         5.2895519233       -6.6381049570       -6.5938608523
 H         6.3835300533       -6.8974009734       -7.7842430608
 H         5.9005924699       -9.0178126142       -7.1919047333
 H         5.1804933203       -8.7763405674       -8.7213457101
 H         0.4984973223       -9.5081302924       -8.8424461418
 H         0.4191474300      -11.2025865787       -8.5534496842
 H        -0.1627613592      -11.0308018703      -10.8838203015
 H         1.5700222187      -11.4916569222      -10.9156795959
 H        -0.1205775550       -7.4904673034      -13.5960059508
 H         0.7072211157       -8.0882517070      -14.8629275967
 H         0.5100592354       -5.7606110149      -15.4394318543
 H         2.1418287189       -6.0037137946      -14.6885599290
 H        -1.7849586185       -4.9118085310      -16.0123257745
 H        -2.3566896274       -3.2635344422      -15.8966675359
 H        -4.4477825609       -3.6563891728      -14.6446835747
 H        -4.0271559710       -5.2112407244      -14.4141324982
 H        -5.7989139666       -2.2822679220      -18.8008170221
 H        -4.3121533308       -1.7000677459      -18.1485046467
 H        -5.3420597632        0.4174296808      -18.3824302753
 H        -6.1357880851       -0.0129807116      -16.7881173674
 H        -9.1204238044        3.9290172121      -17.1880253504
 H       -10.0980311684        2.4240955378      -16.8930385346
 H        -9.8957564429        2.9862750583      -18.5328668520
 H        -6.9048201647        2.3369716805      -19.8547274120
 H        -8.5455048114        2.0542043947      -20.5257878802
 H        -7.2169489175        0.9179356276      -20.6137416468
 H       -10.0525998625        0.0207571755      -17.9827472418
 H        -9.6019520005       -0.2776038332      -19.7643884959
 H       -10.3556630853        1.1965758502      -19.2629576348
 H        -7.5730688620       -3.6422141043      -18.2539258892
 H        -7.2744650562       -5.2258158252      -17.8469756504
 H        -5.8696189258       -4.4314910203      -18.7207087967
 H        -6.8339355369       -3.8136790390      -14.6220967646
 H        -7.6464365805       -4.9829576583      -15.5853395561
 H        -8.0492763291       -3.2761826767      -15.7644311617
 H        -0.3420328077       -1.7332740340      -12.8191394204
 H         0.8057470735       -2.7340999280      -11.9980397050
 H        -0.9024104000       -3.0353962869      -11.8013198010
 H         0.0653877838       -2.2003240477      -15.1258285149
 H         0.2961932392       -3.7074520374      -15.9554247672
 H         1.4894409262       -3.0874429301      -14.8282904794
 H         4.1687669634       -9.3646836605      -13.1808616024
 H         3.7729758254      -10.7431941031      -12.1390157523
 H         4.0096895726       -9.1986163850      -11.4813343572
 H         2.0250048555      -10.1741668196      -14.7158565976
 H         0.4413281130      -10.1819686141      -13.9553268718
 H         1.6362028347      -11.3760456474      -13.4178966261
 H         4.1398626227      -11.3959404468       -5.6365426480
 H         4.5224262857      -11.6001511191       -7.4743732184
 H         3.1603772623      -12.3183796111       -6.9719414962
 H         1.6745804526      -10.0485354557       -5.1794506428
 H         0.9581186227      -11.0080576328       -6.4783696888
 H         1.0645968307       -9.2742789630       -6.5644942083
 H         5.0515859025       -4.5148207920      -10.5575440853
 H         4.1051933529       -3.0915244719       -9.9034527580
 H         3.3551755165       -4.6354284186      -10.5097261542
 H         5.1743998038       -4.3137427471       -6.6668000016
 H         4.9048383651       -2.9050647364       -7.7020129441
 H         6.0996507246       -4.0341744653       -8.0296479680
 H         2.0449354067        0.5648483745       -7.0776688859
 H         2.4218192750        0.4714049671       -5.3798627261
 H         0.9872599918        1.1538224097       -5.8226303687
 H        -0.5576483685       -0.5973709086       -4.4057742266
 H         1.1619713090       -1.2661573973       -4.0168730146
 H        -0.2086012970       -2.2540392096       -4.6454858137
 H        -5.0174725431        1.7570347513       -4.7992478837
 H        -5.6034683594        2.6561534549       -6.2979105562
 H        -3.8388794989        2.4531147187       -5.8690419834
 H        -4.4475822595       -0.3001388985       -4.7629414916
 H        -2.9689792838       -0.3496053084       -5.6102940765
 H        -4.3592318124       -1.3848975927       -6.1164833303
 H        -8.7985567442       -0.7746166745       -1.2778059156
 H        -7.4008418253        0.2310732414       -1.9597085743
 H        -7.4061657472       -1.4945658474       -2.1938218962
 H       -10.3731905213       -1.8448606341       -2.7543457045
 H        -9.1151112475       -2.7129801004       -3.6117045607
 H       -10.1705782166       -1.6917260721       -4.5402997943
 H       -11.0624048328        5.4873946784       -5.3489292080
 H       -10.0233024143        6.5284315167       -6.2932595125
 H        -9.7440720160        6.3171907645       -4.6932056043
 H        -9.4289732089        2.5668617180       -6.8224227875
 H       -10.6061133982        3.8808504684       -7.5517891656
 H       -10.9042304755        3.2973641250       -5.9119839831
 H        -1.6268219013        6.5809971253       -8.5722320266
 H        -2.6067313368        5.4713513975       -7.3820043416
 H        -2.4240810279        7.1241074181       -7.0490124233
 H        -5.2093001029        8.5737454013       -8.6764454099
 H        -3.6938111730        8.9452528847       -9.1939706070
 H        -3.7260439194        8.5260590791       -7.5570874901
 H        -5.3605913008        4.2750863661      -14.1858715120
 H        -6.8917346583        5.0774237773      -14.2372112735
 H        -6.8617297088        3.5119437121      -14.6659101209
 H        -8.7157733677        4.5045602830      -12.4347441580
 H        -8.0227400371        3.8376518699      -11.0203530602
 H        -8.4427710862        2.6431429850      -12.4277956887
 Na       -5.7882327064        3.4245267482       -8.7703202632
 Na        1.8927913299       -6.3545962766      -10.4688426374
