232

 C        -5.2154833909        1.7527310958      -13.1801172826
 C        -5.8875028199        2.4749030441      -12.0315224250
 O        -5.8902283010        1.9588829916      -10.9539350884
 C        -6.5780789396        3.8021908089      -12.5165711800
 C        -6.0242623161        5.0125021397      -11.6349928499
 O        -6.2585786301        5.0319916618      -10.4008466908
 C        -5.1097754763        6.1181278695      -12.2609109224
 C        -4.3936850499        6.9880092270      -11.1892064162
 C        -3.8532479592        6.0846270785       -9.9818219730
 O        -3.5867387181        4.9624242803      -10.3189501428
 C        -3.9240286302        6.7647733104       -8.4634122142
 C        -5.0411672215        6.0664531122       -7.6314251078
 O        -4.7318744199        4.9433576329       -7.1897868875
 C        -6.2328752778        6.9010038228       -7.1647982315
 C        -7.0760132907        6.1070282944       -6.1282867741
 C        -7.8991457317        5.0044572393       -6.8284897298
 O        -7.8374413324        4.6407694871       -7.9940706866
 C        -9.1584744232        4.5537898335       -5.9096429092
 C        -8.6712595313        3.9419754636       -4.5623965234
 O        -7.4793694200        3.7779285992       -4.2824896509
 C        -9.7176421016        3.4249320408       -3.5339688432
 C        -9.3742414452        2.1155715516       -2.8092579982
 C        -9.7247057632        0.8043289397       -3.5518074845
 O       -10.6635889397        0.8990029748       -4.3029185443
 C        -8.8335938594       -0.4604819126       -3.4757087956
 C        -7.7924873687       -0.3120049051       -4.6239044760
 O        -6.6349690343       -0.1573497048       -4.2757040334
 C        -8.1982039420       -0.2823656829       -6.0875100823
 C        -6.9987601995       -0.7963783408       -6.9288880120
 C        -6.0322505061        0.4611093674       -7.3636655203
 O        -6.5893152740        1.2189641102       -8.1182326638
 C        -4.6109429323        0.6945812857       -6.7731918973
 C        -3.5841131531        0.9372513893       -7.9594764113
 O        -3.7300871158        1.9590367493       -8.6019470241
 C        -2.3982902825       -0.0809191271       -8.1989822098
 C        -1.3100799777        0.2695997190       -7.2566553274
 C        -0.4650552436       -0.9661164542       -6.9106909584
 O        -0.9877687191       -2.0088518973       -7.2970628442
 C         0.7929858073       -0.9502487283       -6.1003963323
 C         1.6453826336       -2.1504301207       -6.6113270323
 O         2.4656279216       -2.0674345227       -7.5265070395
 C         1.2684077407       -3.6172525053       -6.0503070921
 C         2.3333277594       -4.6099442441       -6.4403932816
 C         2.6763992592       -4.7362048105       -7.9196479773
 O         1.7586399881       -4.9629937442       -8.6969098957
 C         4.0525646178       -4.6585059811       -8.5545431874
 C         4.3829840616       -6.3275885956       -8.7001600383
 O         3.9450095853       -6.9977963104       -9.6438855844
 C         5.2597102624       -7.0377588920       -7.6316093437
 C         5.0237349195       -8.5827065310       -7.6731862080
 C         3.5959338610       -8.8423408056       -7.1105151806
 O         2.9499614217       -7.8453329359       -6.8327002171
 C         2.7548910568      -10.2671496104       -7.1588903746
 C         2.3678228129      -10.5470549134       -8.6176329737
 O         3.2196720176      -10.6986219423       -9.4255807919
 C         0.8852956639      -10.4726588262       -9.0626195447
 C         0.9964569299      -10.7125289843      -10.6094106252
 C         1.2250846766       -9.4073476340      -11.3686872106
 O         0.5424504475       -8.4590016187      -11.0433656384
 C         2.1010590015       -9.3630919823      -12.6158454744
 C         2.0359473916       -7.9959088233      -13.1244808912
 O         3.0097321401       -7.1894443333      -13.0423005392
 C         0.8217384233       -7.4856934309      -13.9798846174
 C         0.8700024437       -5.9646608286      -14.3685880511
 C         0.5371775521       -5.0788607620      -13.2413117169
 O         0.9474507907       -5.1127226189      -12.1301302458
 C        -0.1878838556       -3.7464942601      -13.7448190690
 C        -1.7001699511       -4.1111564654      -13.9340252793
 O        -2.3134589796       -4.3827791880      -12.9347434744
 C        -2.3899913325       -4.0817909645      -15.3148571742
 C        -3.9017070799       -4.3358887419      -15.1034325007
 C        -4.6991591348       -4.5993602610      -16.4277045840
 O        -4.4005176904       -5.4446370190      -17.2569256914
 C        -6.1217248485       -3.8483965951      -16.5859797459
 C        -5.6385049601       -2.3524082885      -16.6184811471
 O        -5.2947565115       -1.8583850554      -15.5467001462
 C        -5.3094784822       -1.4979890167      -17.9463444105
 C        -6.0663299528       -0.1539278130      -18.1287619151
 C        -7.4770092014       -0.4390623572      -18.5899699445
 O        -7.8713206658       -1.5542029028      -18.9946176687
 C        -8.3889764779        0.8335699256      -18.8133159215
 C        -8.1505481569        1.9410143407      -17.6170980313
 O        -7.1705009181        2.0097451425      -16.8716972774
 C        -9.2159200895        2.9441415831      -17.3925757552
 C        -7.8285479308        1.5079808381      -20.1412745237
 C        -9.8036089144        0.2270684924      -18.9380524919
 C        -6.8213295153       -4.3252836866      -17.9472223155
 C        -7.1472424130       -4.0052885715      -15.3984070332
 C        -0.1480933614       -2.7804801099      -12.6339312585
 C         0.4793196045       -3.1700580999      -15.0274835105
 C         3.5687654557       -9.6765005187      -12.3388782961
 C         1.5717460491      -10.2875661770      -13.7357667439
 C         3.7674106825      -11.3900551262       -6.6347147724
 C         1.6137499114      -10.1610974003       -6.1875229867
 C         4.1025883740       -3.9326423451       -9.9649742431
 C         5.0419277735       -3.8688014556       -7.7311225495
 C         1.6306700489        0.3496989389       -6.1201537034
 C         0.3626919746       -1.1871421643       -4.6404510488
 C        -4.6428021615        1.9351630296       -5.8514868029
 C        -4.1348431636       -0.4700165561       -5.9020139733
 C        -8.0300903791       -0.6708598650       -2.2031479535
 C        -9.7507086258       -1.7665414572       -3.5667626847
 C        -9.9381173827        5.8951072362       -5.5937908934
 C        -9.9770137470        3.5115096067       -6.7154652076
 C        -2.5010948762        6.5618739604       -7.8431465764
 C        -4.1698227557        8.2486658407       -8.6415817827
 C        -6.4242628767        4.0205125244      -14.0117651497
 C        -8.1528724423        3.5300678698      -12.2610799638
 H        -5.9394540245        1.3791605249      -13.8993203606
 H        -4.7883648443        0.9205950194      -12.7024914402
 H        -4.4493196570        2.3204808983      -13.6065687422
 H        -5.7585041174        6.8038154120      -12.7426811125
 H        -4.4345426843        5.6505209913      -12.9761947570
 H        -4.9862278522        7.9170195653      -10.9292572180
 H        -3.5191582337        7.5306202781      -11.5988075798
 H        -6.9249248201        7.1332033426       -7.9549490209
 H        -5.9835516977        7.8858706791       -6.8083146858
 H        -7.7928990789        6.6246029994       -5.4430024580
 H        -6.5076770991        5.6213162005       -5.3809669732
 H       -10.6846559819        3.3119267906       -4.0431350349
 H        -9.7609792198        4.1851938710       -2.7777154969
 H        -9.8746295158        2.0146832399       -1.8942920850
 H        -8.2613348097        2.0883546090       -2.6341610336
 H        -8.7129303712        0.6160744014       -6.4753842590
 H        -9.0026913808       -1.0288917947       -6.2170252416
 H        -7.3221823940       -1.0851526523       -7.8978083804
 H        -6.4282754779       -1.5931567287       -6.4662870906
 H        -1.9627740446       -0.0297963920       -9.1332028074
 H        -2.7290682803       -1.1933493936       -8.0303687019
 H        -1.5855448072        0.7680113767       -6.2710277353
 H        -0.7576893125        1.0944223457       -7.7306133583
 H         0.3150800362       -3.8261132496       -6.4321039974
 H         1.2183220823       -3.6494991610       -4.9823910283
 H         1.9461861853       -5.6709069727       -6.1469725149
 H         3.2292883220       -4.6510783577       -5.8510349286
 H         4.9894341314       -6.6461296971       -6.6148383225
 H         6.2832573651       -6.6843513397       -7.6032873617
 H         5.8681555060       -8.9859556286       -7.1584125254
 H         5.1815855461       -8.8310470504       -8.6985951791
 H         0.4598799155       -9.5386924726       -8.7032655718
 H         0.2791050207      -11.2424027081       -8.5926467204
 H         0.1783794250      -11.2108872055      -11.0213655345
 H         1.9060679680      -11.3533082884      -10.6839308876
 H        -0.1640308638       -7.6046753129      -13.5867008187
 H         0.6052774915       -8.0286930900      -14.8963223643
 H         0.3216351971       -5.7706625821      -15.1909961559
 H         1.9393961661       -5.8276320864      -14.5896629289
 H        -1.8871519461       -4.8740139395      -15.9243792491
 H        -2.2553336201       -3.1856818771      -15.7980634244
 H        -4.5066527195       -3.6901349053      -14.3951871472
 H        -3.9282052464       -5.2054780665      -14.5066290108
 H        -5.5127679645       -2.1081569393      -18.7991461925
 H        -4.2514097283       -1.3292048033      -17.9547776074
 H        -5.5006966277        0.4922406262      -18.9171124078
 H        -6.0176042609        0.4163300330      -17.2279149295
 H        -8.6791506524        3.9125925847      -17.3101040174
 H        -9.7734822041        2.6789286981      -16.4870876173
 H        -9.8484175501        2.9169352497      -18.2495022255
 H        -7.0087656027        2.1496202493      -19.9452948206
 H        -8.5359676535        2.0128156631      -20.7808383656
 H        -7.3128951393        0.7765709247      -20.7449676002
 H       -10.1032513465       -0.3030130402      -18.0803252923
 H        -9.7129223612       -0.2979761831      -19.8763295230
 H       -10.5908879008        1.0633991169      -19.1019267930
 H        -7.5180778134       -3.5327920855      -18.2944898552
 H        -7.6306610893       -5.1228893785      -17.6579529941
 H        -6.0424560895       -4.7371880175      -18.5592778568
 H        -6.7743733924       -3.6487347779      -14.4192345971
 H        -7.5733952438       -4.9926964816      -15.2972629478
 H        -7.9521352643       -3.2996297212      -15.6990938038
 H        -0.5644271767       -1.8198435333      -12.9921761360
 H         0.8516816929       -2.5890954423      -12.3314201745
 H        -0.7575573935       -3.1245700533      -11.8073086523
 H        -0.0256093962       -2.2599081196      -15.3151830633
 H         0.4559896134       -3.8283222196      -15.8380828745
 H         1.5214878136       -3.0241904473      -14.7793998084
 H         4.2548866940       -9.4340031038      -13.1622663241
 H         3.7911196844      -10.6973981150      -12.0714638089
 H         4.0068277677       -9.0927619354      -11.4459073246
 H         1.8889801275      -10.1565429242      -14.7183417671
 H         0.5101976118      -10.1171901878      -13.7598016261
 H         1.6890574964      -11.2684310423      -13.4180632373
 H         4.1797079094      -11.0691700383       -5.6692482199
 H         4.5139177329      -11.6087114727       -7.4115075789
 H         3.3243522441      -12.3358387094       -6.5835253940
 H         1.8731198257       -9.7749120514       -5.1885164397
 H         0.9415439871      -11.0233866919       -6.1294236775
 H         1.0734582321       -9.3038198922       -6.6104432889
 H         4.8612144555       -4.4602433937      -10.5486325372
 H         4.4632459238       -2.8876428289       -9.8539077649
 H         3.1967724937       -4.0067684886      -10.5431251626
 H         5.0888449896       -4.2861074598       -6.6446984901
 H         4.8334640227       -2.8821007448       -7.6768423400
 H         6.0010969383       -3.8990799615       -8.1403316481
 H         2.2263824266        0.4917179898       -6.9453384817
 H         2.2533404854        0.4426279741       -5.1947701303
 H         1.0261842494        1.2623265693       -6.0407138533
 H        -0.1637953669       -0.3338522126       -4.2524357199
 H         1.2417287541       -1.5963199059       -4.0283495087
 H        -0.4919508212       -1.9102965625       -4.7204479349
 H        -5.2078941381        1.7037155776       -4.9818831231
 H        -5.1066338207        2.6790290978       -6.5201244310
 H        -3.6330981334        2.1545914877       -5.5482957341
 H        -4.7072057834       -0.5978547693       -4.9750676013
 H        -3.1311147596       -0.2228534567       -5.6270742046
 H        -4.1681422940       -1.3717000536       -6.5510927238
 H        -8.7673624587       -0.7373535063       -1.3928761291
 H        -7.4460945795        0.2904677024       -2.1477797584
 H        -7.3101483965       -1.4999515642       -2.2805229995
 H       -10.3366635748       -1.8549877274       -2.6677273474
 H        -9.0960013115       -2.6056233996       -3.5139877612
 H       -10.3031865871       -1.9029798154       -4.4910778214
 H       -10.8628156448        5.7765645629       -4.9296805124
 H       -10.2432708019        6.5194968370       -6.4200449525
 H        -9.4076911301        6.6818459117       -5.0329846952
 H        -9.2399797965        2.7622803226       -7.0403715627
 H       -10.4523025402        3.9871041016       -7.5366435637
 H       -10.8322927477        3.1414448912       -6.0619595143
 H        -1.8626408910        7.4047692917       -8.2307829510
 H        -2.0885199787        5.5872615087       -8.0290096623
 H        -2.4669655899        6.5843086277       -6.7127568356
 H        -5.0207175977        8.5109353534       -9.2683047993
 H        -3.3122336972        8.7431048594       -9.1832111826
 H        -4.1392389565        8.7085028436       -7.6316915063
 H        -5.4043459527        3.8682221729      -14.3233972802
 H        -6.7074346570        5.0010648569      -14.3540831838
 H        -7.0885474059        3.3983090539      -14.6038261006
 H        -8.6961685004        4.3221607322      -12.7349315370
 H        -8.3810393587        3.7136852675      -11.2348487182
 H        -8.3876136709        2.4606312686      -12.6782732479
 Na       -5.8072422828        3.4035392883       -8.7284851309
 Na        1.9639435851       -6.5002114496      -10.5394478284
