232

 C        -4.9688064665        1.7215495436      -13.0114559260
 C        -5.8333491801        2.5650397700      -12.1398930275
 O        -5.9775635822        2.2266784562      -10.9589513073
 C        -6.6087079410        3.8742846464      -12.5534464526
 C        -6.0292861942        4.9903800644      -11.6538380934
 O        -6.2617216657        5.0499073120      -10.4895534477
 C        -5.2501380115        6.1144120152      -12.2931058083
 C        -4.5112974010        6.9232104288      -11.2382488019
 C        -3.9579172822        6.2055023238       -9.9488468687
 O        -3.5798852790        5.0113826027       -9.8481697257
 C        -3.8958733160        6.9620810870       -8.5038235041
 C        -4.9154403450        6.1777319943       -7.6214462836
 O        -4.5930241396        5.0612806656       -7.2301980495
 C        -6.2276386925        6.8903613461       -7.2724506573
 C        -6.8192348056        6.2228992590       -6.0787070799
 C        -7.8313149627        5.0400106300       -6.6268306458
 O        -7.4913407426        4.3754078149       -7.6082526934
 C        -9.2589824236        4.6654627726       -5.9482930374
 C        -8.6688994795        3.9738574636       -4.5607282351
 O        -7.4955588693        3.8220198325       -4.4270977176
 C        -9.8020459339        3.4105445560       -3.6420644058
 C        -9.1890638090        2.1943322273       -2.9629023574
 C        -9.7813590022        0.8713366616       -3.5115149971
 O       -10.7463271071        0.9044738154       -4.2692082470
 C        -8.8856155938       -0.3863086742       -3.3568796062
 C        -7.7980037998       -0.1268471133       -4.5068954191
 O        -6.6760309269        0.2301875725       -4.2303135883
 C        -8.1619723328       -0.2802821629       -5.9836807797
 C        -7.0604233669       -0.6201889850       -7.0097523025
 C        -6.0686511480        0.4818688353       -7.2861595609
 O        -6.5709554648        1.3748871742       -7.9624395736
 C        -4.5523924357        0.4921979433       -6.8899371804
 C        -3.6279088025        0.8162190253       -8.1887016778
 O        -3.9555701062        1.7944852946       -8.8339509953
 C        -2.3872028062       -0.0786341619       -8.5232046987
 C        -1.1784710515        0.1995536263       -7.4642768415
 C        -0.5359158237       -1.0589031529       -6.9652674488
 O        -0.8396434379       -2.1589560792       -7.3740600471
 C         0.7455195866       -0.9577664858       -6.0316711465
 C         1.4760537117       -2.2316934219       -6.6069226251
 O         2.1986201822       -1.9583712040       -7.5263011907
 C         1.2849673871       -3.6559116810       -6.1543474530
 C         2.4815111179       -4.4893566895       -6.4473113034
 C         2.6908565091       -4.9573307804       -7.9251728128
 O         1.7211269968       -5.4174054666       -8.5110590541
 C         4.0537766197       -4.7298374707       -8.4999214703
 C         4.5410673287       -6.2094303530       -8.8724062028
 O         4.1027217604       -6.6330374156       -9.9086417892
 C         5.2932739126       -7.0355917002       -7.7584612228
 C         4.7818524995       -8.5168921693       -7.6227731387
 C         3.3435873001       -8.6417610017       -7.0648836971
 O         2.5833897563       -7.7582405982       -6.7869346443
 C         2.7938516702      -10.1646829638       -7.1106625330
 C         2.5180113510      -10.6299536399       -8.6486955849
 O         3.5342467874      -10.9639502147       -9.3140614556
 C         0.9934608981      -10.7160262982       -9.1209163106
 C         0.7983990281      -10.8572687440      -10.6527440942
 C         1.1627658465       -9.5704375748      -11.4026845793
 O         0.8324015773       -8.5422336434      -10.8082940690
 C         2.0785516990       -9.5493127980      -12.6991757607
 C         2.0401337867       -7.9875723090      -13.3085750344
 O         2.9180130495       -7.2174806091      -13.0731823893
 C         0.7331829987       -7.5726491924      -13.7717629135
 C         0.5429987302       -6.1046251108      -14.3384349396
 C         0.4703671220       -4.9337095335      -13.2710131292
 O         0.8498213831       -5.0530449792      -12.0851174251
 C        -0.1921064330       -3.6307668777      -13.7194067601
 C        -1.7318439899       -4.0701054458      -13.8174027315
 O        -2.3166285200       -4.5341025476      -12.8884373935
 C        -2.5071816052       -3.9913878582      -15.1393105767
 C        -3.9715367891       -4.3427668611      -14.9825213015
 C        -4.6948238299       -4.5385857301      -16.3328805633
 O        -4.3657194185       -5.3929127537      -17.1266340228
 C        -5.9818553259       -3.7543657337      -16.4448744374
 C        -5.4582894335       -2.1616291777      -16.5447172675
 O        -5.1971576488       -1.5769318586      -15.5326832568
 C        -5.0043431596       -1.6424033100      -17.9639670994
 C        -5.8271303363       -0.4277897805      -18.4261185599
 C        -7.4412394543       -0.5865159142      -18.6810286967
 O        -7.9255937815       -1.6464097992      -18.9693262714
 C        -8.4375451820        0.8125334820      -18.8461287549
 C        -8.2351288286        1.6788682551      -17.6350539391
 O        -7.3580140086        1.4863801220      -16.8289781262
 C        -9.1546297585        2.9303534131      -17.4306250934
 C        -8.2315595720        1.4722385448      -20.2036656396
 C       -10.0010155282        0.3599680860      -18.8532539032
 C        -6.8194590840       -4.1672069169      -17.7310507790
 C        -6.7996366522       -3.9343811076      -15.1051863087
 C        -0.0833694931       -2.4253539637      -12.6912361201
 C         0.3821685958       -3.1492785988      -15.0648801976
 C         3.6164293571       -9.8809334090      -12.2175613455
 C         1.6626875320      -10.6571177529      -13.5831711229
 C         3.8818082813      -11.1876794098       -6.6091969883
 C         1.6317591809      -10.1897145987       -6.1541685786
 C         3.8860932197       -4.0158256989       -9.8615208445
 C         5.1442511107       -4.0991106471       -7.6900305691
 C         1.5545485614        0.2656296187       -6.2992141137
 C         0.3449014981       -1.0006702261       -4.5279138740
 C        -4.3564846743        1.7033405345       -5.9152038147
 C        -4.1340341459       -0.8268972741       -6.1280045488
 C        -8.3470544869       -0.4556201136       -1.9487342382
 C        -9.7870690380       -1.5468885404       -3.7814045348
 C       -10.2391565109        5.7921514009       -5.5140618146
 C        -9.9981203414        3.6454345013       -6.8587628444
 C        -2.4450622709        6.6144516222       -8.0156812549
 C        -4.0879040320        8.4262120516       -8.5318782575
 C        -6.4485244837        4.2785581237      -14.0082939378
 C        -8.0476415484        3.6887948517      -12.1300802087
 H        -5.5076138430        1.5478131880      -13.9230318145
 H        -4.8264776799        0.7302542417      -12.5157403150
 H        -3.9963321196        2.2809045662      -13.1644871068
 H        -5.9243761655        6.7588442867      -12.9120729441
 H        -4.4704332151        5.6490788868      -12.9178245731
 H        -5.1642744749        7.6122676666      -10.7915123360
 H        -3.7292273892        7.5693662952      -11.6572976491
 H        -7.0673714025        7.0802594382       -7.9702602448
 H        -5.9903340289        7.9375893722       -6.9725407567
 H        -7.3056346518        6.8054552080       -5.3352451254
 H        -5.9724312614        5.7129133303       -5.5690642064
 H       -10.6641197572        3.1551209128       -4.2502254698
 H       -10.0289288133        4.1380251494       -2.8129008656
 H        -9.4333521429        2.2443292543       -1.8428178238
 H        -8.1399745757        2.0993605721       -3.1031849760
 H        -8.5127913713        0.7183244919       -6.3102958974
 H        -9.1099903213       -0.8392864716       -6.1471615871
 H        -7.5365858305       -0.6760552521       -8.0398805659
 H        -6.4092549402       -1.5245266081       -6.8706213860
 H        -2.0035800863        0.0821481553       -9.6081335549
 H        -2.6429411057       -1.0479629300       -8.3934890991
 H        -1.4604288391        0.7662892450       -6.6056092682
 H        -0.3489150375        0.8309643961       -7.8036333176
 H         0.2817163591       -3.9836037853       -6.6234720252
 H         1.0620901883       -3.4363852070       -5.0819561124
 H         2.6474365432       -5.3240096168       -5.8816345234
 H         3.4101957657       -3.9390823580       -6.2413720296
 H         5.3883116373       -6.5035325166       -6.8435068083
 H         6.3505871348       -6.9505659109       -8.0534451008
 H         5.5802996848       -9.1491028356       -7.1547064276
 H         4.7303139957       -8.7254503661       -8.7137416454
 H         0.2797457091       -9.9047945221       -8.7704078680
 H         0.4811662934      -11.6255492630       -8.6949774185
 H        -0.3082927161      -11.1278264647      -10.7919290487
 H         1.4071632982      -11.6478839181      -11.0586571011
 H        -0.0978424769       -7.8094501701      -13.0648363830
 H         0.3201575725       -8.1967698451      -14.5562492087
 H        -0.5033956755       -6.0915838116      -14.8779153308
 H         1.3206515684       -6.0853873290      -15.0921392015
 H        -2.0208525298       -4.7170255187      -15.7760055703
 H        -2.4260719196       -2.9441792876      -15.6365137389
 H        -4.5640220925       -3.7362750236      -14.3862687459
 H        -4.0091052316       -5.2562681925      -14.3020193641
 H        -5.1131608706       -2.5242079717      -18.6311292742
 H        -3.9200379597       -1.3364206689      -17.9971111850
 H        -5.4295721155       -0.1387328177      -19.3103631536
 H        -5.5199115871        0.4040406260      -17.7438668191
 H        -8.5825082255        3.8223721913      -17.6680323360
 H        -9.4034998288        2.8640156095      -16.3587376343
 H       -10.0729484683        2.9341915662      -18.0569003426
 H        -7.1750843938        1.6566460353      -20.4987626289
 H        -8.7631406570        2.4248594663      -20.2656508401
 H        -8.6457827723        0.8823342724      -21.0205607735
 H       -10.1365306717       -0.1588000637      -17.8726620694
 H       -10.1813911436       -0.2299575303      -19.7412676269
 H       -10.6231621673        1.1733831446      -18.7770866146
 H        -7.4135475273       -3.3187219030      -17.8470286198
 H        -7.5072316271       -4.8933132318      -17.5389076181
 H        -6.1511742602       -4.5778566174      -18.5235340554
 H        -6.5082971410       -3.1886976232      -14.3484301877
 H        -6.6563007929       -4.9664854720      -14.7133279823
 H        -7.8739745281       -3.7959888660      -15.2936961769
 H        -0.8693229787       -1.6765145347      -12.7827051226
 H         0.8851113640       -1.9037381114      -12.9199213209
 H        -0.0902842557       -2.7951484926      -11.6472032298
 H        -0.2201615973       -2.2657997055      -15.3061037537
 H         0.4430300048       -3.8562704397      -15.9840448600
 H         1.4379320772       -2.8763515229      -14.8476746644
 H         4.3577143873      -10.1856788117      -12.9617783734
 H         3.6449015583      -10.7726061098      -11.5739154978
 H         4.0260748438       -9.1243198420      -11.5929618319
 H         2.0956069360      -10.5919666384      -14.5706532406
 H         0.6369821925      -10.3969119029      -13.8744120196
 H         1.7733621451      -11.6793617583      -13.2040403348
 H         4.3648032879      -10.7542605834       -5.7894546706
 H         4.6115560089      -11.3863964204       -7.3555579292
 H         3.4140976000      -12.1393485440       -6.2763197362
 H         1.9768398310       -9.7921754378       -5.2045761056
 H         1.2497480687      -11.2128423825       -5.9739721902
 H         0.8737596445       -9.4431312604       -6.4388237586
 H         4.6483263488       -4.2528229802      -10.6007721670
 H         4.0028862966       -2.9560626728       -9.6919748716
 H         2.9006384138       -4.2443058867      -10.2714593515
 H         5.4471474799       -4.6567409534       -6.8763399051
 H         4.8525471593       -3.0465131656       -7.2181969441
 H         5.9906109658       -3.8151817340       -8.4032719549
 H         1.9940603048        0.2898285734       -7.3430817881
 H         2.3915086570        0.3231773902       -5.6208457885
 H         0.9607212706        1.2148793158       -6.3011772774
 H         0.2896308043        0.0758206623       -4.2665775874
 H         1.1517816405       -1.3879722866       -4.0592324496
 H        -0.5706676504       -1.4019904236       -4.1957341423
 H        -5.3142893982        1.8597053192       -5.3979604387
 H        -4.0857928205        2.5150276971       -6.5345741091
 H        -3.6524895852        1.3480643507       -5.1668192457
 H        -4.9107401684       -1.1097225286       -5.4078180207
 H        -3.1207442458       -0.7108241198       -5.6348445673
 H        -4.0597118069       -1.5848456939       -6.8930041335
 H        -9.1878973486       -0.4416553632       -1.2380186779
 H        -7.6851731753        0.3646079255       -1.8528209147
 H        -7.7544677253       -1.3408735439       -1.8980995474
 H       -10.4206846876       -1.7689600838       -2.9335459165
 H        -9.3675578499       -2.5164035215       -4.1139966192
 H       -10.4358096471       -1.1632856999       -4.5505041086
 H       -10.9880265189        5.3651600997       -4.9440490224
 H       -10.8042403211        6.2198539673       -6.3642646974
 H        -9.9843856951        6.7336258091       -5.0449917687
 H        -9.3531129872        2.8991337949       -7.2147886744
 H       -10.2644500657        4.2986835160       -7.6975766807
 H       -10.8386920725        3.3366375958       -6.3454121905
 H        -2.1866422983        7.2583422495       -7.2390882193
 H        -1.6976756773        6.8102086420       -8.7988714951
 H        -2.3257533432        5.6200992199       -7.7248858317
 H        -5.2030654778        8.6240702886       -8.6813352867
 H        -3.6291501329        8.7947447120       -9.4147725690
 H        -3.7045893172        9.0050982941       -7.6925726571
 H        -5.4430406176        4.7150335362      -14.2138932132
 H        -7.1899045004        5.0959329445      -14.2050496986
 H        -6.6554176843        3.5428982011      -14.8126251187
 H        -8.6131796077        4.6089734852      -12.2159435341
 H        -8.0412986960        3.3969229906      -11.0812922743
 H        -8.3926200298        2.9003593403      -12.6523409369
 Na       -5.6577149340        3.3054951357       -8.9178607210
 Na        2.0105376148       -6.5954762629      -10.8883763970
