232

 C        -4.8806906552        1.8790546745      -13.1119918661
 C        -5.8321460841        2.6446904564      -12.1362318532
 O        -5.9565818680        2.2443546896      -11.0087421136
 C        -6.6127746631        3.9131386801      -12.5377072630
 C        -6.0934646796        5.1301225475      -11.6720821072
 O        -6.4807070261        5.1685785150      -10.4958951424
 C        -4.9415240071        6.0260701810      -12.1342085727
 C        -4.5904704320        7.1414015585      -11.0995603947
 C        -3.9191914962        6.2931358619       -9.8443595772
 O        -3.7397939415        5.1661445208      -10.0362872570
 C        -3.7469806169        7.0613186618       -8.4100305782
 C        -4.7348483208        6.2804904025       -7.4800299581
 O        -4.5558386899        5.0899169395       -7.3782721172
 C        -6.0322783932        7.0650404836       -7.0925698858
 C        -7.0300983625        6.3018553017       -6.1745119035
 C        -7.7820830618        5.0241358561       -6.6599398774
 O        -7.3499826278        4.1765047365       -7.3551596408
 C        -9.3035308113        4.6814579790       -6.0049287961
 C        -8.7673074168        3.9863254998       -4.6060235448
 O        -7.5578661358        3.8061900738       -4.4542299738
 C        -9.8229526617        3.6127822391       -3.5469881217
 C        -9.3464288369        2.2734366940       -2.8585124901
 C        -9.8214758020        1.0491000860       -3.5975871002
 O       -10.8448195652        1.0760869344       -4.2077221008
 C        -8.9559897786       -0.3392687495       -3.5013682873
 C        -7.7918773179       -0.0963261734       -4.4544317874
 O        -6.7304558296        0.4106213924       -4.1316148553
 C        -8.0496159316       -0.2661867999       -5.9159813382
 C        -6.9819576699       -0.6655291288       -6.8791416915
 C        -6.0850537871        0.5677086479       -7.1259156031
 O        -6.5489120231        1.5453957618       -7.6618734059
 C        -4.5927960963        0.3168802929       -6.9616166147
 C        -3.7435100262        0.6936832001       -8.3674142138
 O        -4.0491722200        1.6060006507       -9.1082798360
 C        -2.4529928425       -0.0951385180       -8.5641567304
 C        -1.2644570899        0.2538988970       -7.6979443730
 C        -0.6360377540       -1.0772265193       -7.1076736043
 O        -1.2523135022       -2.0914065730       -7.3436828557
 C         0.7314592384       -0.9976207511       -6.2391504141
 C         1.5768270359       -2.2328010492       -6.6812723705
 O         2.4123093164       -2.1482548203       -7.5371611423
 C         1.3151292794       -3.6519671536       -6.0774425072
 C         2.4353822405       -4.6435383141       -6.3284627754
 C         2.7266374319       -5.0687706572       -7.7439751313
 O         1.8825991509       -5.6978399835       -8.3563203263
 C         4.0783966287       -4.7816830284       -8.6651448171
 C         4.5637886791       -6.2589406462       -9.0819726945
 O         4.2859422236       -6.7946435677      -10.1628457576
 C         5.2488569249       -7.1351494685       -7.9510278581
 C         4.6141810888       -8.5044668706       -7.8722150486
 C         3.2492724877       -8.6779460168       -7.3077717795
 O         2.6021632385       -7.7531891530       -6.8269793804
 C         2.7751574598      -10.1815712861       -7.1507542835
 C         2.5569753234      -10.7890767542       -8.5517243610
 O         3.5275068050      -10.9898829489       -9.2388144253
 C         1.0781598941      -10.9623610735       -8.9679948338
 C         0.9944551566      -10.9947399972      -10.5121324805
 C         1.3212665089       -9.6335084880      -11.1775530907
 O         1.2382599934       -8.5999673801      -10.5793068593
 C         2.0324842149       -9.5980939902      -12.5400079147
 C         1.8084498368       -8.1851195645      -13.1266202803
 O         2.7994367207       -7.4464406963      -13.1798197353
 C         0.4818444852       -7.6387094674      -13.5555325526
 C         0.5130341651       -6.2620575245      -14.1737675157
 C         0.5325384388       -4.9738049174      -13.3281349620
 O         0.8053948367       -4.9882203004      -12.1582154458
 C        -0.1446725382       -3.6182427833      -13.8045260306
 C        -1.6764957604       -4.0447826460      -13.7577584713
 O        -2.1617550015       -4.5067262052      -12.7379265503
 C        -2.5506633713       -3.9647560189      -14.9727552693
 C        -3.9505767143       -4.5288810890      -14.7434066775
 C        -4.6477354265       -4.4463433852      -16.1388240028
 O        -4.2160914560       -5.1556035350      -17.0266082746
 C        -5.9321802274       -3.6362384506      -16.3148397719
 C        -5.5732345100       -2.0091568436      -16.6806625118
 O        -5.2210993890       -1.2778738832      -15.7761088134
 C        -5.3324811448       -1.7000632039      -18.1913700222
 C        -6.0199120040       -0.4032026595      -18.6437531256
 C        -7.4888306054       -0.7011969338      -18.7953753493
 O        -7.9939622387       -1.7772339561      -18.9738485784
 C        -8.3890116402        0.5946912523      -18.7457294824
 C        -8.2373818659        1.5538211436      -17.5481987739
 O        -7.5254040184        1.2221801631      -16.6032736486
 C        -8.9838813315        2.8637443531      -17.5898777899
 C        -8.2150817793        1.4507185161      -20.0901264113
 C        -9.8083052396       -0.0154493974      -18.6265557834
 C        -6.8090658751       -4.2395311677      -17.4303223658
 C        -6.7708156451       -3.5339674986      -14.9956228163
 C         0.0076657562       -2.4991147013      -12.6804864257
 C         0.2089600586       -3.1784124438      -15.2009104303
 C         3.5509841472       -9.8147627427      -12.1589646797
 C         1.5561516577      -10.6312973571      -13.6288385624
 C         3.9604338120      -10.8297652924       -6.4337492915
 C         1.4427833993      -10.3803397059       -6.3212531745
 C         3.7180999203       -3.9077230256       -9.8585326766
 C         5.1690073794       -4.0964097995       -7.8009392361
 C         1.4145020503        0.3354655162       -6.5109378993
 C         0.2403407535       -1.1097320624       -4.7765283203
 C        -4.1979159904        1.4700942514       -5.9279086885
 C        -4.1998361716       -1.0698607444       -6.4125741323
 C        -8.4599961306       -0.4607477262       -1.9732126243
 C        -9.7164668835       -1.5714708173       -3.8709746363
 C       -10.0722283837        5.9157795248       -5.6570985781
 C       -10.0373365833        3.5879940943       -6.9735635049
 C        -2.2092176186        6.8609466563       -8.0601478895
 C        -3.9462079840        8.5758236937       -8.6749168818
 C        -6.5716349899        4.1882652996      -14.0623658351
 C        -8.1110568053        3.7466240656      -12.2470768417
 H        -5.2993854988        1.7299889612      -14.1484576676
 H        -4.6431780039        0.9030229738      -12.6952931128
 H        -4.0091166648        2.5063158037      -13.1523801555
 H        -5.1653318159        6.3851969003      -13.1396105180
 H        -4.0396416787        5.3869828078      -12.1724494031
 H        -5.5362281516        7.6745145709      -10.7163791679
 H        -3.9064175432        7.8988735142      -11.5177864369
 H        -6.5130498174        7.4079306223       -8.0168346401
 H        -5.8750508161        8.0153063694       -6.5981490176
 H        -7.9267586631        6.9201934844       -5.8188146794
 H        -6.4760250351        6.0447505245       -5.2331508374
 H       -10.7971319288        3.5205366843       -4.0851655583
 H        -9.8529281765        4.3201369569       -2.7594126061
 H        -9.6737223226        2.1814068240       -1.8731168263
 H        -8.2241582447        2.1592295766       -2.8847315883
 H        -8.5216913249        0.6727693408       -6.2122173567
 H        -8.8726441063       -0.9158707458       -6.1220241910
 H        -7.3983742558       -0.7599963772       -7.8577226651
 H        -6.4923358804       -1.5522631194       -6.6302200843
 H        -2.1565215880        0.1040306728       -9.5344068280
 H        -2.6751988233       -1.2546697780       -8.4852973958
 H        -1.6379930522        0.8386623613       -6.8372632740
 H        -0.5529398924        0.9416708369       -8.1039273752
 H         0.3610251242       -3.8879322613       -6.4359261957
 H         1.1768446930       -3.4946880718       -5.0120557773
 H         1.9985803623       -5.6712194906       -5.9942775967
 H         3.3805113096       -4.5609534490       -5.8075393526
 H         5.0079651482       -6.6811119769       -6.9262181488
 H         6.3461025559       -7.1066779365       -7.9510580686
 H         5.3472687685       -8.9970417563       -7.2622000651
 H         4.5903924234       -8.9093163126       -8.8862481299
 H         0.3423204954      -10.3284781731       -8.5700444712
 H         0.6838105604      -11.9095092048       -8.6122586084
 H         0.1239414257      -11.4541097958      -10.9544532046
 H         1.9072357043      -11.5780881009      -10.8196484945
 H        -0.2417912294       -7.6106663514      -12.7320081292
 H        -0.1404854505       -8.2977882753      -14.2207105868
 H        -0.3546865905       -6.1687640868      -14.7552767483
 H         1.3903524604       -6.1968707712      -14.8881924752
 H        -2.0616722783       -4.4833266167      -15.8456223782
 H        -2.6532787932       -2.9520999714      -15.2081516052
 H        -4.5472225220       -4.1298414125      -13.8733443944
 H        -3.9015705290       -5.5712907871      -14.5118108058
 H        -5.7229463841       -2.5163151758      -18.8083059244
 H        -4.2542503307       -1.7013037724      -18.2851859942
 H        -5.5665694329        0.0012355280      -19.6873069032
 H        -5.8152939927        0.4333882741      -17.9761539087
 H        -8.2446668202        3.5279550368      -18.0569547847
 H        -9.2571706271        3.2219443194      -16.6129876485
 H        -9.7554370021        2.8177737276      -18.3427291433
 H        -7.2156675696        1.3414575886      -20.5212828463
 H        -8.2813600614        2.5415303668      -19.9163733462
 H        -8.9848602953        1.3257739244      -20.9013835972
 H        -9.9814933283       -0.2061592440      -17.6080824276
 H        -9.7908393850       -0.9566868922      -19.1816929872
 H       -10.5917888713        0.7188014739      -18.9508062688
 H        -7.7047631590       -3.5889913673      -17.6003801335
 H        -7.0642964845       -5.3208209783      -17.2211848712
 H        -6.1393579732       -4.4221228329      -18.2259970135
 H        -6.5458607024       -2.5711445383      -14.6009122072
 H        -6.5732058105       -4.2856142810      -14.2654842849
 H        -7.8126501631       -3.5782842011      -15.1589729454
 H        -0.7099175549       -1.7185280116      -12.9604110584
 H         0.9792615400       -2.0480581349      -12.7272930133
 H        -0.2553657813       -2.8363611846      -11.6915402061
 H        -0.3469427003       -2.2847237796      -15.5316446233
 H        -0.0860705555       -3.9822016340      -15.7709577216
 H         1.2592653320       -3.0944679633      -15.4031883800
 H         4.0322449780      -10.0546984670      -13.0900968999
 H         3.9257231889      -10.6669614778      -11.5693202939
 H         4.0299454160       -8.9124878968      -11.7523391042
 H         2.2995049594      -10.6254195447      -14.4837365191
 H         0.5988641386      -10.5927296621      -14.1944358581
 H         1.7660078882      -11.6198851966      -13.1377197104
 H         4.1695521691      -10.2596973767       -5.4343574393
 H         4.9574688973      -10.9081581022       -6.9898589784
 H         3.5399294917      -11.7940570608       -6.0849508450
 H         1.8203279819      -10.3146954561       -5.3038451272
 H         1.2441235605      -11.4063197727       -6.3625548469
 H         0.5850241130       -9.7718442074       -6.4159292954
 H         4.6144019586       -3.4097034409      -10.2432364026
 H         3.1788703100       -3.0294853314       -9.4882335536
 H         3.1617964271       -4.3910070444      -10.6698270992
 H         5.0809723372       -4.3576390761       -6.7309215326
 H         4.9543857030       -3.0786435264       -7.7858078362
 H         6.1440816370       -4.2396457150       -8.1645707396
 H         1.4485942664        0.7431372854       -7.5118229356
 H         2.4655288293        0.1790972771       -6.2230584220
 H         0.9552415654        1.1343313080       -5.9921889832
 H        -0.4513289223       -0.3331723929       -4.5808710364
 H         1.1818690455       -0.9482090190       -4.0869957489
 H        -0.1743660116       -2.1087875976       -4.5172200577
 H        -4.8014398857        1.2310821436       -5.0668479414
 H        -4.5503286113        2.3877051643       -6.4373666271
 H        -3.1406306958        1.4014595831       -5.6852930018
 H        -4.6071032764       -0.9718628571       -5.4203193739
 H        -3.1594290909       -1.1963709219       -6.3810081272
 H        -4.5844498005       -1.9765789929       -6.8884584736
 H        -9.3523681842       -0.2536159116       -1.4798681423
 H        -7.6734763938        0.2115217861       -1.6531443615
 H        -8.1736615708       -1.5264224716       -1.7827597268
 H       -10.2969114887       -1.9639021535       -3.0036833070
 H        -8.9648406845       -2.3126135300       -4.1039714342
 H       -10.4665447448       -1.5107624111       -4.7045196141
 H       -11.1322158365        5.9289090548       -5.2928254742
 H       -10.1749888141        6.5899126632       -6.4984769406
 H        -9.5768796201        6.5456781869       -4.9649442887
 H        -9.3517455800        2.6916788684       -7.1057032785
 H       -10.1151957679        4.1243830615       -7.9157698045
 H       -11.0054642766        3.2818163079       -6.4565182196
 H        -1.8881201552        6.0333299114       -7.3579854894
 H        -1.7829644666        7.8040287383       -7.6412680744
 H        -1.6816721356        6.6253275302       -9.0225241110
 H        -4.8886244927        8.8877923616       -8.9698883409
 H        -3.0869107204        8.8315642448       -9.3555637849
 H        -3.7891151113        9.1164258945       -7.7376548011
 H        -5.6459386714        4.1001247344      -14.5840970134
 H        -7.0269246144        5.1211267438      -14.3598706562
 H        -7.1874507297        3.3893076565      -14.4452209350
 H        -8.4676852361        4.7949955367      -12.2228347172
 H        -8.3288021144        3.1360451585      -11.3283578863
 H        -8.6187371230        3.1533994805      -13.0810430271
 Na       -5.4581639799        3.5704536544       -8.8643807400
 Na        2.1809252651       -6.3571124317      -10.8375487762
