232

 C        -4.9803259503        2.0556364414      -13.2051195795
 C        -5.8976313640        2.6617040329      -12.1482221344
 O        -5.9444416165        2.2897396345      -10.9948921672
 C        -6.6287698771        3.9632128134      -12.5897989452
 C        -6.1803596886        5.1997787457      -11.7024474246
 O        -6.6236624306        5.3249967535      -10.6076601446
 C        -5.0413534089        6.0784664412      -12.2380263963
 C        -4.4862606663        7.0101371355      -11.1466244086
 C        -3.8894092048        6.2962197829       -9.9546770222
 O        -3.6730469435        5.0605363937       -9.9295753805
 C        -3.7865902219        7.1107145269       -8.4850522453
 C        -4.7484148681        6.3870566697       -7.5084678601
 O        -4.3463202349        5.2881510490       -7.1159104688
 C        -5.9508812626        7.1362923363       -7.0912577532
 C        -6.9750398695        6.3603610265       -6.2665117534
 C        -7.6580802564        5.0287108858       -6.7293551134
 O        -7.2367058931        4.3217098667       -7.6578118161
 C        -9.0098944505        4.7562402746       -5.9404270988
 C        -8.6893595176        4.0196054642       -4.5575087648
 O        -7.5445104221        3.7195125252       -4.3145529167
 C        -9.8697938664        3.6229442023       -3.5988016457
 C        -9.5960989762        2.3785497707       -2.7989907899
 C        -9.9327474087        1.0644470537       -3.5448190578
 O       -10.8677555118        1.0503749024       -4.3173492302
 C        -9.0366844259       -0.1910556976       -3.4676446044
 C        -7.9511749271        0.0698118844       -4.5492746376
 O        -6.8294477624        0.2798220879       -4.1482949013
 C        -8.2596273704       -0.0788718492       -6.0069951625
 C        -7.0518971207       -0.5851929335       -6.7937286001
 C        -6.0652974315        0.5765832588       -7.1068523049
 O        -6.4537070567        1.6543334779       -7.5201266575
 C        -4.4869775637        0.3287711746       -6.9032168541
 C        -3.8064119849        0.6732959876       -8.3711757310
 O        -4.1231695945        1.5905554663       -9.0679692567
 C        -2.5494804413       -0.1305015146       -8.8588052022
 C        -1.2819474326        0.0181222124       -7.9126569890
 C        -0.7004254902       -1.2844994441       -7.3473574138
 O        -1.3724401886       -2.2832479767       -7.1383677186
 C         0.6645873879       -1.1685570903       -6.4561268047
 C         1.6430713267       -2.2870212429       -6.8541186742
 O         2.6785739034       -2.1118727110       -7.5080858315
 C         1.4069823295       -3.7093538215       -6.2540470586
 C         2.4797152317       -4.7142813748       -6.4753264549
 C         2.6197292372       -5.0756875257       -7.9996578513
 O         1.6894745214       -5.6538403148       -8.5838914244
 C         3.9928897982       -4.8147666173       -8.6238997228
 C         4.5243855352       -6.2407408158       -9.0387560130
 O         4.3587073479       -6.5548903750      -10.1935667654
 C         5.1069056708       -7.1231806015       -7.9727495756
 C         4.5854036233       -8.6239522306       -8.1069011578
 C         3.3520444662       -8.8150856433       -7.2923571593
 O         2.7375852911       -7.8500779081       -6.9062618723
 C         2.8234749593      -10.3074897491       -6.9631957817
 C         2.5671271042      -10.8795719508       -8.4580769437
 O         3.5386745358      -11.0299455398       -9.1866566195
 C         1.1507167608      -11.1765164686       -8.9968980092
 C         1.1510818388      -11.1052393644      -10.5415928428
 C         1.4956794332       -9.7096986128      -11.0618571101
 O         1.4883273018       -8.7826026640      -10.2393902805
 C         2.1124933520       -9.5193198511      -12.4699564595
 C         1.8236386699       -8.0020789678      -13.0133985903
 O         2.7852008187       -7.3350254913      -13.2388301701
 C         0.3908450911       -7.5509139193      -13.3183483225
 C         0.5015888956       -6.2088455688      -14.2136377774
 C         0.5345624024       -5.0164824346      -13.2715706870
 O         1.0923476575       -5.0794556774      -12.1886106381
 C        -0.1666713046       -3.8262232028      -13.7745048625
 C        -1.6769290268       -4.1319894344      -13.5444947652
 O        -2.1122664724       -4.4199321142      -12.4870256156
 C        -2.6408267616       -3.8915996036      -14.7639053101
 C        -4.0789423266       -4.4461587466      -14.6662250925
 C        -4.7098143449       -4.3098740066      -16.0483367344
 O        -4.1934003363       -4.7216198872      -17.0844991443
 C        -6.0468031833       -3.5894950227      -16.1864622308
 C        -5.5500302259       -2.1870795448      -16.8696107519
 O        -5.3010130943       -1.2761737290      -16.1200640390
 C        -5.2251986545       -1.8313419542      -18.4052647927
 C        -5.9433657865       -0.5135017588      -18.6157832506
 C        -7.4986510704       -0.7824456828      -18.6729831627
 O        -7.9088626175       -1.9040917621      -19.0161747687
 C        -8.5301819503        0.4418101609      -18.6824741094
 C        -8.3308503890        1.3900329575      -17.4383658319
 O        -7.6699429436        1.0073135517      -16.4931915860
 C        -8.7737487689        2.9217981280      -17.5310232993
 C        -8.3521640685        1.0989018559      -20.0859670257
 C       -10.0041795343        0.1026578172      -18.6266696755
 C        -7.0206890881       -4.3493616264      -17.1379892636
 C        -6.8428262929       -3.1324499699      -14.9591865803
 C         0.2342555911       -2.6212413999      -12.8726220497
 C         0.3513767216       -3.4797318051      -15.1486505706
 C         3.5848450903       -9.7065554793      -12.4548184915
 C         1.3788673921      -10.5588394644      -13.3577993553
 C         3.8531444831      -11.1965587645       -6.1799974367
 C         1.5320485021      -10.0586996068       -6.1647856473
 C         3.6864651030       -3.8622532934       -9.8608926696
 C         5.0712083299       -4.1032167110       -7.7715677717
 C         1.4952287155        0.2130743082       -6.6789901821
 C         0.1690314840       -1.1868939231       -5.0124623643
 C        -3.9969834334        1.4187649467       -5.9436435337
 C        -3.9942338755       -1.0891431344       -6.5666109991
 C        -8.3496070726       -0.4029214358       -2.0721255809
 C        -9.9302114291       -1.4183226942       -3.7312266193
 C        -9.9366606824        6.0672825465       -5.8691362483
 C        -9.9216381381        3.7104834125       -6.8334937436
 C        -2.4208048433        6.8035168447       -7.9908943401
 C        -4.0035974947        8.7495518511       -8.5323307588
 C        -6.4437410741        4.3716691676      -14.0133241405
 C        -8.1768506490        3.7151373852      -12.2312849990
 H        -5.5149791960        1.6005620253      -13.9838873233
 H        -4.3872404722        1.3414565529      -12.6754884656
 H        -4.3913861363        2.8631803317      -13.6369178455
 H        -5.2434452164        6.6754666136      -13.1219854477
 H        -4.2651513067        5.3632536673      -12.5081316619
 H        -5.3212612103        7.5075959789      -10.7154378378
 H        -3.7844093131        7.7568376431      -11.5890388619
 H        -6.4153699364        7.5383316798       -8.0026813338
 H        -5.7686017721        8.0675324846       -6.5361621394
 H        -7.8080659371        6.9817764328       -6.1170750603
 H        -6.4818352401        6.1071081904       -5.3513755907
 H       -10.7800722094        3.5450061735       -4.1555123152
 H        -9.9896480202        4.4216866081       -2.8077447066
 H       -10.1767771629        2.2916723434       -1.8149977020
 H        -8.5409875659        2.3313609195       -2.5992782543
 H        -8.5974380382        0.9272989021       -6.3534869545
 H        -9.1264959827       -0.7139822727       -6.3489773723
 H        -7.3920471375       -0.7914965165       -7.8624166850
 H        -6.5083795843       -1.5420665061       -6.4173616189
 H        -2.2370539110        0.2893014402       -9.8756175800
 H        -2.7858863837       -1.1230000992       -8.9994006513
 H        -1.4780577341        0.7370076119       -7.0963948379
 H        -0.3974016648        0.5030122837       -8.4294414266
 H         0.3430196805       -3.9094289798       -6.6523260362
 H         1.2460749492       -3.5953727263       -5.1956025492
 H         2.1821700906       -5.5674793346       -5.9028557587
 H         3.4854591150       -4.4142824662       -6.1563287822
 H         5.0448767805       -6.7735181194       -6.9544421315
 H         6.1857302590       -7.1223434678       -8.2679904256
 H         5.4719724023       -9.1731060502       -7.7941404055
 H         4.3468006022       -8.7765825932       -9.1439063008
 H         0.3524040105      -10.4931160211       -8.5490291044
 H         0.6447056090      -12.1237552341       -8.7609636426
 H         0.2381065202      -11.2381376767      -11.1503025019
 H         1.9114200502      -11.7852406798      -10.8375950578
 H        -0.2104869814       -7.3833946739      -12.3872241130
 H        -0.1688673291       -8.3066092807      -13.8267379589
 H        -0.3397410816       -6.0887719477      -14.9482236144
 H         1.4355629270       -6.1805563590      -14.7380001657
 H        -2.1644976764       -4.2435082759      -15.6504075073
 H        -2.7257097267       -2.7620629128      -14.9446718066
 H        -4.6714944390       -3.8774156430      -13.9735005565
 H        -4.2216070195       -5.5376490054      -14.4018417159
 H        -5.5700480670       -2.5054580853      -19.1660858423
 H        -4.1265799608       -1.7783177932      -18.3996368807
 H        -5.6122734205        0.0724830348      -19.3596099214
 H        -5.7923497499        0.1154610051      -17.7253432023
 H        -8.0356252728        3.5345911414      -18.0609042540
 H        -8.8924746473        3.2440822303      -16.4903833572
 H        -9.6607023650        3.0161259281      -18.1374496118
 H        -7.3142273642        1.2190920743      -20.3858791553
 H        -8.7599076502        2.0680984449      -20.2733067295
 H        -8.8935317514        0.4907619710      -20.7301338262
 H       -10.2908724847       -0.4732315410      -17.6941526469
 H       -10.2165709151       -0.5267215714      -19.4838613353
 H       -10.5101901486        1.0584458397      -18.6499178685
 H        -7.7223883154       -3.5873483246      -17.4926984762
 H        -7.4921698194       -5.2224763707      -16.6814967726
 H        -6.3668319320       -4.7787853620      -17.9467132837
 H        -6.2113534250       -2.6224258498      -14.2133004806
 H        -7.4718202314       -3.8968047297      -14.5039244311
 H        -7.5636156318       -2.3603454301      -15.3357327607
 H        -0.0127600317       -1.6969187538      -13.3895320198
 H         1.2935545570       -2.6560429032      -12.6234508023
 H        -0.3771508050       -2.7200088339      -11.9792358849
 H        -0.2046073646       -2.6740323079      -15.5424645033
 H         0.3854201534       -4.3157115183      -15.9021844117
 H         1.3721298705       -3.0820155600      -15.0924922533
 H         4.2340617721       -9.5511675910      -13.3580298873
 H         3.7521911885      -10.7586038668      -12.3390618121
 H         4.0759264743       -9.2428950089      -11.5684755214
 H         1.5728928631      -10.4149799856      -14.3664788231
 H         0.3253311687      -10.4494813724      -13.2279864289
 H         1.6662512308      -11.5392324766      -13.1607496795
 H         4.4298403992      -10.6825517747       -5.5109486768
 H         4.5495926775      -11.5326536362       -6.8886736200
 H         3.3083146877      -11.9376991034       -5.6465132378
 H         1.6838497396       -9.6680218086       -5.1664099613
 H         0.9667696078      -11.0420611192       -6.0951348677
 H         0.8932054878       -9.4046993445       -6.8069750874
 H         4.5124171511       -3.1746869241      -10.0219391463
 H         2.8255926355       -3.2065145231       -9.7771677670
 H         3.5632219690       -4.4936862950      -10.7232321827
 H         5.5751731311       -4.6355598851       -6.8656970456
 H         4.7595331819       -3.1235819202       -7.4005223229
 H         5.8626932868       -3.9987659843       -8.5325132249
 H         1.8509732518        0.3218755042       -7.6631171839
 H         2.3846991218        0.2880859061       -6.0701130882
 H         0.8210841761        1.0786366392       -6.6454159358
 H        -0.5002161791       -0.2695287419       -4.8459840980
 H         0.9141003338       -1.2221664401       -4.2759055276
 H        -0.3932138248       -2.1256741552       -4.9421246082
 H        -4.1682428305        0.9053383812       -5.0015913958
 H        -4.5450598544        2.3350904273       -6.0348195592
 H        -2.9220096620        1.5030467806       -6.0947498680
 H        -4.4499006897       -1.5073410552       -5.6640905597
 H        -2.8759384797       -1.0620441634       -6.4750006079
 H        -4.1464218076       -1.7772485546       -7.3904125107
 H        -9.1451055341       -0.4107410041       -1.2385921062
 H        -7.5331823963        0.3292053526       -1.8508895314
 H        -7.9371456824       -1.3752116798       -2.2019970906
 H       -10.5437369491       -1.6184468641       -2.8948026601
 H        -9.4047780664       -2.3251903077       -4.0496469049
 H       -10.6561571217       -1.1576867901       -4.4441299179
 H       -10.9658665874        5.8703547739       -5.6565266169
 H       -10.0422894189        6.7523666805       -6.7214586587
 H        -9.7597816598        6.7490925721       -4.9621126249
 H        -9.3027737395        2.8853559361       -7.0569670257
 H       -10.2320213406        4.2207430855       -7.7433111757
 H       -10.6805258931        3.3427695220       -6.2029175907
 H        -1.8753977403        6.1439941114       -8.6698829259
 H        -2.4186571983        6.3489090096       -7.0119015380
 H        -1.7614835874        7.6685904178       -8.0020101900
 H        -5.0407343558        9.0551913370       -8.9247153413
 H        -3.1834227015        9.1059266428       -9.0832831836
 H        -4.0429732903        9.1896490854       -7.5313007750
 H        -5.4349269633        4.7638558451      -14.2047454918
 H        -7.1065759304        5.2159808998      -14.1724978973
 H        -6.5655111049        3.5650448876      -14.7315429680
 H        -8.8222599648        4.4342594994      -12.7025791993
 H        -8.2398316178        3.6176930292      -11.1908011294
 H        -8.4372212480        2.7114436941      -12.5486968296
 Na       -5.4670284823        3.5423973418       -8.7787343237
 Na        2.1430519965       -6.4479305932      -10.6501177682
