232

 C        -5.0225129932        1.9217613736      -13.1282842402
 C        -5.8528112295        2.8415468139      -12.2279250763
 O        -5.8464392696        2.5599442544      -11.0294579081
 C        -6.6941574362        4.1116700349      -12.6350092153
 C        -6.2650084384        5.2922369479      -11.6145054129
 O        -6.6286560790        5.3488734258      -10.4232659316
 C        -5.1161954675        6.2505619860      -12.1387892568
 C        -4.2729450554        7.0749721022      -11.1300311857
 C        -3.8215706434        6.2286961781       -9.8564374845
 O        -3.8281139171        5.0609276408       -9.8333686757
 C        -3.7418413569        7.0134262519       -8.4571318528
 C        -4.7584031180        6.3511945956       -7.4106925214
 O        -4.6087042373        5.2625775848       -6.8363373970
 C        -6.1058726562        7.0087238948       -7.2171639055
 C        -6.7682707329        6.2707547421       -5.9821435833
 C        -7.6700302354        5.1753944016       -6.6469595381
 O        -7.4140433291        4.8673482154       -7.7750713171
 C        -8.9954452599        4.7022831993       -5.9551088511
 C        -8.6720488961        3.9734918416       -4.6197221484
 O        -7.5404827311        3.8207458761       -4.2352013101
 C        -9.9161608389        3.7589498571       -3.7541130432
 C        -9.6844923340        2.5244529337       -2.8545687798
 C       -10.0369861920        1.2345120879       -3.5920644644
 O       -10.8844591761        1.2718887539       -4.4627184281
 C        -9.1018271838       -0.0286957685       -3.4409975472
 C        -8.0127743832        0.0737073945       -4.5882677784
 O        -6.8265383296        0.0609806969       -4.2951079536
 C        -8.3218858211        0.0012964611       -6.1267743736
 C        -7.0942389202       -0.5439020507       -6.9913438379
 C        -5.9451035703        0.6267846805       -7.1906886338
 O        -6.3265044380        1.7736126260       -7.4140226295
 C        -4.3997809006        0.3193288209       -6.9694748350
 C        -3.6408650998        0.6134337352       -8.3091647672
 O        -3.8333599104        1.6729137712       -8.9417628699
 C        -2.6106530074       -0.3708025462       -8.8570929421
 C        -1.1559162850       -0.2019879478       -8.3994264092
 C        -0.6647253274       -1.3813372265       -7.4327165543
 O        -1.1864311133       -2.4658528557       -7.5315965416
 C         0.5677961297       -1.1627216537       -6.5790617236
 C         1.5364677374       -2.3525499103       -6.8889477611
 O         2.6098885851       -2.2010944857       -7.4020740677
 C         1.1199413982       -3.8249464917       -6.4076721909
 C         2.3247324266       -4.8282766693       -6.4947061551
 C         2.6024506517       -5.0123303500       -8.0169942373
 O         1.7021104804       -5.2695579223       -8.7679821017
 C         4.0391418177       -4.8504451339       -8.6767734908
 C         4.4820193599       -6.2356592584       -9.1460462887
 O         4.3903556538       -6.7448944617      -10.2925532627
 C         5.2527242747       -7.1702571384       -8.1581875962
 C         4.7004307211       -8.6603629847       -8.1972555009
 C         3.4463317735       -8.8362285587       -7.2997415381
 O         3.0112853714       -7.8209730123       -6.8017290582
 C         2.7813234182      -10.2363414344       -7.0073893848
 C         2.6251961199      -10.9361459532       -8.3322291818
 O         3.5915568988      -11.2290539188       -9.0499282384
 C         1.2763088351      -11.2546606073       -8.9083190643
 C         1.2203401857      -11.1039350641      -10.4297483829
 C         1.7822029447       -9.6749790250      -10.8862486752
 O         1.7702930671       -8.8225660892      -10.0348749215
 C         2.1263601590       -9.6035149765      -12.4857371817
 C         1.9111211944       -8.1191933130      -12.9226807892
 O         2.8057437106       -7.2866749608      -12.9697453797
 C         0.4102150435       -7.6707939732      -13.2276745205
 C         0.1924814404       -6.3865599632      -13.8920135430
 C         0.5640960630       -5.1057224701      -13.1149401608
 O         1.3453411760       -5.0701533995      -12.1772657005
 C        -0.0853972407       -3.8086769771      -13.6543678585
 C        -1.6866164659       -3.9571309426      -13.5793231301
 O        -2.0754529477       -4.3207820449      -12.4708054160
 C        -2.6303019230       -3.7659807189      -14.7139148528
 C        -4.0402194924       -4.2434887823      -14.5611524385
 C        -4.7633264870       -4.1060185572      -15.9636145240
 O        -4.1389824003       -4.4781473023      -16.9271559807
 C        -6.1305109250       -3.4457527008      -16.1591843560
 C        -5.5963302035       -2.0435422084      -16.7973330305
 O        -5.0447473359       -1.2735615154      -16.0385011767
 C        -5.5211535641       -2.0066932050      -18.3143044680
 C        -6.1393645735       -0.7296714051      -18.8613327509
 C        -7.6916910529       -0.9204996921      -18.8734435345
 O        -8.2719240166       -1.9623649711      -18.8429358168
 C        -8.5248748738        0.4005745283      -18.8090340696
 C        -8.2422187763        1.2984615034      -17.4835798912
 O        -7.7877063962        0.7643556478      -16.4988024815
 C        -8.5793831766        2.7837952966      -17.6074135610
 C        -8.3447728781        1.2146111437      -20.0643161394
 C        -9.9878513377       -0.1494858853      -18.4367855518
 C        -7.1571038676       -4.2002278906      -17.1615487472
 C        -6.9041583312       -3.0071660210      -14.8671324191
 C         0.3483785857       -2.6031281206      -12.9095930042
 C         0.1993218030       -3.5510051757      -15.1585069039
 C         3.6644727068       -9.9307043797      -12.6122841486
 C         1.2932008728      -10.4524469928      -13.3393171902
 C         3.7143190630      -11.2722877060       -6.2259151355
 C         1.5104203235      -10.0650265741       -6.1045588006
 C         3.8376330454       -4.0242631246       -9.9395674275
 C         5.0099233223       -4.0925709366       -7.6867871116
 C         1.3134616153        0.2184915561       -6.9516578048
 C         0.3248988816       -1.1588108318       -4.9746193119
 C        -3.8587066081        1.4170684925       -5.8966520014
 C        -4.2365140269       -1.0470559833       -6.3142194621
 C        -8.4194555311       -0.1338141970       -2.0944116222
 C       -10.0715734786       -1.2727606534       -3.6309536516
 C        -9.9596621922        5.9237980618       -5.6177784513
 C        -9.5965271439        3.6891936862       -6.9416448785
 C        -2.2050677669        6.8935426530       -8.1235652002
 C        -4.0256003873        8.5565236599       -8.7576971601
 C        -6.6622997311        4.4784433203      -14.1236703906
 C        -8.0942284541        3.6987900253      -12.3279471542
 H        -5.6320396126        1.0078068779      -13.4292683781
 H        -4.1580123685        1.5726127228      -12.5078668809
 H        -4.7827345266        2.4633174178      -14.0545021304
 H        -5.4689905080        7.0700155615      -12.8208373886
 H        -4.4415472238        5.6444363377      -12.7992494542
 H        -4.9822608543        7.8596555191      -10.7645881675
 H        -3.4862020596        7.4648475775      -11.7225146477
 H        -6.7658835832        7.0305863775       -8.0962308166
 H        -6.0061492438        8.0684895989       -6.9589148647
 H        -7.3301763485        6.9769227250       -5.2657893684
 H        -5.9186842762        5.6327455816       -5.5385069477
 H       -10.9047977361        3.6909335317       -4.3175119880
 H        -9.9936648096        4.6176717530       -3.0962063699
 H       -10.3869577181        2.4363937075       -2.0672222695
 H        -8.6533289567        2.5924438001       -2.4051363245
 H        -8.5454415158        0.9911702959       -6.5481481294
 H        -9.2168531118       -0.5669508365       -6.3360818857
 H        -7.3927937856       -1.0067690331       -7.9092116649
 H        -6.5496071178       -1.2462942233       -6.4867481939
 H        -2.5926068139       -0.3148303578       -9.9201712610
 H        -2.9259815175       -1.4576966715       -8.6289946511
 H        -1.1209205276        0.7711460978       -7.9222729119
 H        -0.5257656947       -0.1862896156       -9.2518742652
 H         0.2976223111       -4.1180364524       -6.9915957832
 H         0.6799848707       -3.7225079355       -5.3506366156
 H         1.8720340139       -5.7316742085       -6.0731512721
 H         3.3009642754       -4.6507542281       -6.0384823980
 H         5.1308453358       -6.8220130154       -7.1081771105
 H         6.2988032274       -7.2351364430       -8.4306547107
 H         5.5237516412       -9.2649225635       -7.7735252377
 H         4.5839065472       -8.8037081526       -9.3151552823
 H         0.3801110323      -10.8902303766       -8.5226793272
 H         0.9916397669      -12.3055831597       -8.8495877388
 H         0.2679380600      -11.0813207782      -10.9680455428
 H         1.8938723991      -11.9165382441      -10.8338736404
 H        -0.1986147818       -7.9445952553      -12.3267748027
 H        -0.0109348575       -8.2940634752      -14.1033531487
 H        -0.8028191661       -6.2701164922      -14.3455796609
 H         0.9733812555       -6.3094009053      -14.7317307672
 H        -2.2019959123       -4.2850724797      -15.6405043818
 H        -2.4869268518       -2.7237379825      -14.9163371178
 H        -4.5255543416       -3.6487820980      -13.7547166693
 H        -4.0425563426       -5.3099053834      -14.3668901239
 H        -6.0696939708       -2.8742456317      -18.7674576504
 H        -4.4514328396       -2.0461894181      -18.5708757912
 H        -5.7839475340       -0.5511998987      -19.9814082189
 H        -5.8013158449        0.2081606607      -18.3995206312
 H        -7.8122553666        3.0962679520      -18.3210161432
 H        -8.3646506723        3.2640431254      -16.6562749476
 H        -9.5368762399        3.0774034831      -18.0962145959
 H        -7.8896852202        2.1706704274      -19.9462682911
 H        -9.3193315074        1.4656781994      -20.4838009813
 H        -7.9439273613        0.6123992668      -20.9207819373
 H        -9.8889377435       -0.7466242485      -17.5683332583
 H       -10.2458165639       -0.8977490835      -19.1866517008
 H       -10.6824194898        0.6569273199      -18.3369190697
 H        -7.8321420881       -3.3926074153      -17.4402153816
 H        -7.6346622071       -4.9485882678      -16.5804368428
 H        -6.7543686871       -4.5354720347      -18.1378299593
 H        -6.2666749971       -2.7611119731      -14.0081417345
 H        -7.6717374673       -3.7741145348      -14.5749002014
 H        -7.4894706659       -2.1407521476      -15.1026804974
 H        -0.0681355950       -1.7177743876      -13.4144440534
 H         1.4562158376       -2.5635107432      -12.9317280253
 H         0.0086051793       -2.6904117482      -11.8674810727
 H        -0.1690340913       -2.5129701996      -15.4920292129
 H        -0.3183422606       -4.2812594888      -15.7740256378
 H         1.2541072702       -3.5337134391      -15.4796266730
 H         4.0698188024       -9.6758661000      -13.5417264072
 H         4.0052192660      -11.0018684553      -12.5221833139
 H         4.1612948017       -9.3472406329      -11.9104280858
 H         1.2650532259      -10.2259396405      -14.4508221400
 H         0.3098141079      -10.4607805940      -12.8558722930
 H         1.6471492331      -11.5288720162      -13.2499816822
 H         4.0839950303      -10.9877016340       -5.2169536097
 H         4.6476828079      -11.3471716707       -6.7677087206
 H         3.0861335286      -12.1758449165       -6.1481227361
 H         1.7915738214       -9.4226082301       -5.2399163296
 H         0.9816234008      -10.9352601414       -5.8338615016
 H         0.8271977297       -9.5285012782       -6.7483625429
 H         4.7250499729       -3.4217508723      -10.1054542618
 H         3.0196200963       -3.3243823221       -9.8406014505
 H         3.6095998099       -4.6296922662      -10.8357090999
 H         5.1545281827       -4.7170764709       -6.9341959815
 H         4.4747523804       -3.2022785514       -7.2307573514
 H         6.0244744699       -3.8698036855       -8.0460238211
 H         1.6991494267        0.2445564033       -8.0556738861
 H         2.2026689974        0.4271051006       -6.3607204129
 H         0.6323333898        1.0629153608       -6.9472713955
 H         0.1866867833       -0.1733704084       -4.5845973961
 H         1.1034577448       -1.6187787375       -4.3705175688
 H        -0.4957870522       -1.7968692811       -4.8407887613
 H        -4.4522656741        1.4919764091       -4.9793394757
 H        -3.8436775681        2.3147933807       -6.5164890850
 H        -2.8292309182        1.1082372761       -5.8035284613
 H        -4.7804752622       -1.1604637850       -5.3647094071
 H        -3.1867346706       -1.2037313013       -6.1148708764
 H        -4.5153450904       -1.8766080010       -7.0130817209
 H        -9.0959078611       -0.1959637199       -1.3181273567
 H        -7.9221010432        0.7900081392       -2.0626326443
 H        -7.6536690520       -0.9323992604       -2.0556947023
 H       -10.7595179383       -1.3865746107       -2.7801074258
 H        -9.5163544222       -2.1702611586       -3.7178081996
 H       -10.7635019884       -1.2125045582       -4.4947721211
 H       -10.9006315238        5.8079714154       -5.1096037544
 H       -10.3202757926        6.4458345338       -6.4812884715
 H        -9.5501754476        6.5942621049       -4.9752892654
 H        -8.7731706634        2.9779135182       -6.9792485474
 H        -9.8396941465        4.1429990382       -7.8929748527
 H       -10.4157574025        3.1938541527       -6.4637921241
 H        -1.6574127547        7.4212713152       -8.8463606939
 H        -2.0609391648        5.8122747040       -8.2517645323
 H        -1.7952880984        7.2160444846       -7.2091257835
 H        -5.0074020501        8.6967491519       -9.0231370355
 H        -3.3508024360        8.7434477608       -9.6209396722
 H        -3.8078659896        9.2090198489       -7.9093583279
 H        -5.6199290758        4.5710880519      -14.4411777702
 H        -7.1199045415        5.4722117238      -14.2803453562
 H        -7.1014656234        3.6759199148      -14.7412352924
 H        -8.7589320331        4.3348925951      -12.9508313529
 H        -8.3133361321        3.7734342458      -11.2281933632
 H        -8.3923966872        2.7205813982      -12.5785895871
 Na       -5.5184610677        3.5441466148       -8.8876909496
 Na        2.0047820986       -6.6759416084      -10.6682670136
