232

 C        -5.9110125380        1.7616316612      -13.2983578298
 C        -5.8932541047        2.8632270456      -12.2305102528
 O        -5.3392199485        2.6026746082      -11.2079256958
 C        -6.8266264657        4.1916461325      -12.3594050225
 C        -6.2642833882        5.4179974109      -11.3954096727
 O        -6.9258910247        5.8313377761      -10.5243556993
 C        -4.9868243581        6.2243758110      -12.0001160107
 C        -4.2446093811        7.2202060245      -11.0027637733
 C        -3.7534722469        6.3481044840       -9.7964463717
 O        -3.7216596809        5.1320649111       -9.9835243302
 C        -3.5198668599        7.0017508147       -8.3497248237
 C        -4.6015486470        6.2857029802       -7.4036289503
 O        -4.5164453942        5.0401852833       -7.1280074484
 C        -5.6485195275        7.0412627350       -6.7514538594
 C        -6.5567215269        6.1387758579       -5.8841145834
 C        -7.5271707091        5.2840309427       -6.7531664836
 O        -7.1094626357        4.8126614516       -7.8131083087
 C        -8.9287750087        5.1271718762       -6.2400767187
 C        -8.7872425078        4.3737263847       -4.8410147815
 O        -7.7065122697        4.0725212093       -4.3807768221
 C       -10.0383170250        4.2068111256       -3.9459348264
 C        -9.9293124525        2.9305563671       -3.0639307739
 C        -9.8367132299        1.6938844743       -4.0465135675
 O       -10.1806738757        1.7647213253       -5.2133339868
 C        -9.0948072603        0.3468982541       -3.6144958376
 C        -7.9218543301       -0.1581644585       -4.6953829217
 O        -6.7996527686       -0.2969698696       -4.2790063294
 C        -8.2357547897       -0.2415331780       -6.2047153538
 C        -7.0136445135       -0.4831490292       -7.0634072757
 C        -6.1270929428        0.7119892434       -7.1844685696
 O        -6.4997317523        1.7294160104       -7.7172824420
 C        -4.5077191248        0.5618150894       -6.7780028307
 C        -3.7382478920        0.8273421269       -8.0983713881
 O        -3.4151235092        1.9048504954       -8.4951058871
 C        -3.1783750898       -0.4266938082       -8.8504265397
 C        -1.6660184086       -0.4748821232       -8.9452388235
 C        -1.1033031799       -1.5168855026       -7.9649821046
 O        -1.6315036031       -2.6196533019       -7.9841691549
 C         0.2411391352       -1.3265758716       -7.3007496738
 C         1.3402456640       -2.6770373694       -7.3914281491
 O         2.3264056385       -2.4920446004       -8.1045882000
 C         1.0368511087       -4.0742770787       -6.8432821915
 C         2.4437776982       -4.7248724572       -6.5691496738
 C         2.9782739029       -5.1755444512       -8.0136813961
 O         2.1305517400       -5.5913441097       -8.7629823063
 C         4.4448082064       -5.2594399676       -8.2267720440
 C         4.8114727347       -6.7763667769       -8.4519075355
 O         4.4141857801       -7.2731083630       -9.4955225075
 C         5.8373210728       -7.4723235342       -7.5580402636
 C         5.5284722462       -8.9079587396       -7.2879222400
 C         3.9888434140       -8.8959043380       -6.8994185302
 O         3.3764975924       -7.8511075024       -6.9618458064
 C         3.2828098112      -10.2464037980       -6.7555028725
 C         3.1521199931      -10.9503096591       -8.1003160213
 O         4.1563985497      -11.3060491110       -8.6949082245
 C         1.7082700268      -11.0789059367       -8.7019312728
 C         1.8169313215      -11.2099996848      -10.2919767562
 C         1.6047007366       -9.7938506578      -10.9934128895
 O         1.2751500634       -8.8324722443      -10.3072163782
 C         1.9149602258       -9.7796116727      -12.5367278344
 C         1.6941988525       -8.3962338572      -13.1704309556
 O         2.4872663602       -7.7003626130      -13.7390349360
 C         0.1605517785       -8.0194602944      -13.0972554486
 C        -0.1279643252       -6.7136056486      -13.7458289174
 C         0.3907311530       -5.3611767348      -13.0628608675
 O         0.9061495262       -5.3521392086      -11.9433572241
 C        -0.0134931399       -4.0524797419      -13.7237640488
 C        -1.6139767386       -3.7354780262      -13.7162140223
 O        -2.1049593671       -3.7538343222      -12.6337810363
 C        -2.3756893847       -3.3880648258      -15.0037552378
 C        -3.7161439421       -2.7457409605      -14.8132847665
 C        -4.8881873792       -3.6484895375      -15.4362590633
 O        -4.6368594580       -4.8460761682      -15.4702811397
 C        -6.2457268242       -3.0478143480      -15.8865220826
 C        -5.8593053253       -2.0581508772      -16.9770963461
 O        -5.5009360286       -0.9533896164      -16.6264273910
 C        -6.0218255564       -2.3275623794      -18.4698578654
 C        -6.7060846897       -1.3172852333      -19.3049017534
 C        -8.1504172723       -1.0833525408      -18.8560349301
 O        -8.8188875206       -2.0985632593      -18.5816520734
 C        -8.9506099718        0.2594912408      -18.7878483988
 C        -8.4355558834        1.0379162331      -17.5312055353
 O        -8.3853699810        0.5317329384      -16.4262766187
 C        -8.2888388988        2.6050014492      -17.5978358490
 C        -8.6643569717        1.0865165025      -20.1068365818
 C       -10.4373330784       -0.1529588121      -18.4050943432
 C        -7.2058383633       -4.1469866179      -16.4188662170
 C        -6.9587154488       -2.1877146606      -14.8018571986
 C         0.7197454490       -2.8187128611      -13.0941553411
 C         0.5852242708       -4.0006482917      -15.2088086526
 C         3.4148626241      -10.3278467641      -12.7503069257
 C         0.8977800438      -10.7804904183      -13.2290307978
 C         4.1459000637      -11.1362081278       -5.7396969178
 C         1.9074669269      -10.0012475459       -6.0747061426
 C         4.6476788332       -4.5191734038       -9.5711271453
 C         5.3707951735       -4.6832099538       -7.1480528158
 C         0.9459633305       -0.0007995397       -7.8706795672
 C        -0.0110497327       -0.9732786145       -5.8557477559
 C        -4.2493276932        1.8774523229       -5.8935141321
 C        -4.1760156884       -0.6629779933       -5.9752326410
 C        -8.6134269249        0.2737045827       -2.1527321049
 C       -10.2050070727       -0.7304329556       -3.7710277318
 C        -9.5218683049        6.4709432340       -5.9741496906
 C        -9.6887082313        4.2703877487       -7.3544670554
 C        -2.1155527013        6.7116758205       -7.7488810275
 C        -3.6887596137        8.5265140977       -8.4186200338
 C        -6.9045614683        4.7023927652      -13.8286292466
 C        -8.2802762960        3.9219860547      -11.8657151804
 H        -6.6974844624        1.8779609203      -13.9602358836
 H        -5.9077100374        0.8050155196      -12.8318795899
 H        -4.9671873073        1.7633294280      -13.8093274652
 H        -5.2130744196        6.8011885920      -12.9106394457
 H        -4.2576989871        5.5533588114      -12.3946459325
 H        -5.0805754927        7.8177860236      -10.6257336294
 H        -3.5257125713        7.7799049377      -11.5364562993
 H        -6.2150180372        7.5349081207       -7.5490610882
 H        -5.3114939170        7.8041835989       -6.0188783795
 H        -7.0814584866        6.8634422446       -5.2811836878
 H        -5.8701265702        5.3474827276       -5.4345864512
 H       -10.9960540545        4.0944580002       -4.5697647464
 H       -10.2189742629        5.1060099470       -3.4110539081
 H       -10.8065753811        2.7409955549       -2.4238748274
 H        -9.0993182392        3.1377885093       -2.3462033629
 H        -8.6725685996        0.7198908472       -6.6390220055
 H        -8.8511252379       -1.1366701556       -6.3472235229
 H        -7.4731180457       -0.7107901782       -8.0721506231
 H        -6.4451494980       -1.4007254785       -6.8244316182
 H        -3.6298331544       -0.3131811087       -9.9163960164
 H        -3.5308203911       -1.3366762301       -8.4688239664
 H        -1.3340875871        0.5832954714       -8.8239642475
 H        -1.2975246135       -0.8410579171       -9.9287421697
 H         0.4383093438       -4.6019703537       -7.6287850247
 H         0.4100531975       -4.0790849754       -5.8688204929
 H         2.2806883938       -5.4399869958       -5.8636581090
 H         3.1569503702       -3.9683230399       -6.2193381302
 H         6.0079992811       -6.9595715310       -6.6236062709
 H         6.7283271827       -7.6156379591       -8.1176560278
 H         6.1109208172       -9.3300648316       -6.4567656518
 H         5.7993823618       -9.5467398206       -8.1891471954
 H         1.0729833802      -10.1979991704       -8.5636794745
 H         1.2773615354      -11.9990025816       -8.1802938817
 H         1.0810505154      -12.0127306519      -10.7038023290
 H         2.8085225169      -11.5554597521      -10.6072238401
 H         0.0264729990       -7.9990033090      -12.0265611633
 H        -0.4134306281       -8.7890438339      -13.6463706520
 H        -1.2101143334       -6.3555112887      -13.9065322389
 H         0.2653088398       -6.5392554508      -14.7318177722
 H        -2.4748013831       -4.3574007962      -15.5988308160
 H        -1.6040473644       -2.7617448885      -15.5021729045
 H        -3.5855382377       -1.7845551560      -15.2927140854
 H        -3.8930488001       -2.6422162125      -13.7209626992
 H        -6.5506877552       -3.2702483554      -18.6737204464
 H        -5.0477437230       -2.5776946835      -18.8684464615
 H        -6.8211683803       -1.7885132522      -20.2233898414
 H        -6.0923554011       -0.3616618126      -19.4332546298
 H        -7.6397514836        2.9025043999      -18.3643776032
 H        -7.8220344908        2.9869443920      -16.6935397361
 H        -9.2244979096        3.1651791170      -17.6845870127
 H        -7.7939569796        0.7252633061      -20.6350824195
 H        -8.6710404061        2.1307048657      -19.8966042911
 H        -9.4381671569        0.8869836110      -20.8648259316
 H       -10.3179412873       -0.7500000708      -17.4462022937
 H       -10.8418251187       -0.6687188206      -19.3007714030
 H       -11.0656567218        0.6660730756      -18.2082429915
 H        -8.1363535379       -3.7673862417      -16.8296673348
 H        -7.4014714389       -4.7979012006      -15.6046032464
 H        -6.7000456063       -4.7767610426      -17.2335579144
 H        -6.2944964781       -1.5540346649      -14.2741944876
 H        -7.4231540973       -2.8524517542      -14.0500768648
 H        -7.7111690306       -1.5816547180      -15.2075168817
 H         0.3473945079       -1.9345269984      -13.5173297827
 H         1.7595792253       -2.9700443313      -13.4082037688
 H         0.5892366083       -2.8525882278      -12.0274697732
 H         0.5403075644       -3.0095247184      -15.5675094938
 H         0.1441480617       -4.6598102984      -15.9852598206
 H         1.5874523638       -4.2897068111      -15.2648129082
 H         3.7037282866      -10.0714903256      -13.8339088439
 H         3.4438499224      -11.4106541012      -12.5758276023
 H         4.2037206806       -9.9051536520      -12.1123754489
 H         0.8641264413      -10.5911553550      -14.2711107117
 H        -0.1184888334      -10.7330153859      -12.9089106428
 H         1.3742338825      -11.7344675581      -13.0326326834
 H         4.5290958733      -10.6019079072       -4.9559462165
 H         4.8045233268      -11.7416600614       -6.2913896306
 H         3.5776857523      -11.9581700330       -5.3182237115
 H         2.0052587964       -9.6681024899       -5.0450317011
 H         1.3110818044      -10.9070260962       -6.0007125536
 H         1.3925330323       -9.1955083943       -6.6015574623
 H         5.6493024251       -4.1199141014       -9.6353632709
 H         3.8998422734       -3.7314998170       -9.6578681049
 H         4.5531837724       -5.1341001266      -10.4849262986
 H         5.0863663332       -5.3739410520       -6.1870339973
 H         5.2256845023       -3.6351953348       -6.9678074954
 H         6.4209871029       -4.7839026605       -7.4671390659
 H         0.9855886329       -0.1067464795       -8.9520406864
 H         1.9436573536        0.1109232367       -7.4955284285
 H         0.3344084656        0.8962990090       -7.6575432828
 H        -0.5107106382        0.0301757988       -5.6705460289
 H         0.8075311099       -1.1890645799       -5.2836672425
 H        -0.8830505256       -1.5288197154       -5.5381225749
 H        -5.0066469388        2.0084254856       -5.0899063296
 H        -4.1410288095        2.7236554989       -6.5400855238
 H        -3.2935591843        1.6355405556       -5.4315336272
 H        -4.5791362020       -0.7118035462       -4.9676135691
 H        -3.0872534421       -0.7351250237       -5.8331927613
 H        -4.4730220039       -1.6043892448       -6.4410558191
 H        -9.3045370004        0.5939181434       -1.2910054497
 H        -7.6750750683        0.8598332155       -2.1454059540
 H        -8.2423632530       -0.7317257113       -1.9366848575
 H       -11.0653769175       -0.4308202828       -3.1406957272
 H       -10.0566668231       -1.7829846460       -3.5234704272
 H       -10.5305562411       -0.7110799452       -4.8218950388
 H       -10.5213446289        6.5081558226       -5.5782260442
 H        -9.4776511022        7.2447548166       -6.8069439906
 H        -8.8801622742        7.0851043597       -5.2977842719
 H        -9.2684398713        3.2988717326       -7.1861948414
 H        -9.2622104666        4.5727543653       -8.3605006763
 H       -10.7620381491        4.3621092145       -7.3282623914
 H        -2.1188978504        6.8831906254       -6.6678527204
 H        -1.2988980474        7.4232684548       -8.1038866312
 H        -1.8364362611        5.6607833105       -8.0474702437
 H        -4.5901632138        8.6357802057       -9.0793939953
 H        -2.8123200133        8.9136723746       -8.9365898067
 H        -3.8216013558        9.0036188723       -7.4118895100
 H        -5.9010404755        4.9395060158      -14.1365023289
 H        -7.4416853298        5.6564058168      -13.7680725595
 H        -7.3555709813        4.0364649455      -14.5551266832
 H        -8.9520628404        4.7473527604      -12.0964435383
 H        -8.4316857168        3.8952760407      -10.8121866622
 H        -8.5853611230        3.0222429358      -12.3292008233
 Na       -5.3178942408        3.6340267952       -8.7292608800
 Na        2.3750606369       -6.8397307037      -10.6258703588
