232

 C        -6.0120802120        1.9561765655      -13.3021210587
 C        -5.9970243299        2.9119083428      -12.1322949671
 O        -5.3192473919        2.7388524441      -11.1099159977
 C        -6.8535507367        4.2520913922      -12.2676567011
 C        -6.2706371117        5.3866165024      -11.4408623451
 O        -6.7858568725        5.8023995396      -10.4227315504
 C        -5.0699589719        6.0446056069      -11.9912169196
 C        -4.3899151543        7.0046889041      -10.9324407483
 C        -3.7471594673        6.2203853876       -9.8013204856
 O        -3.5889415658        5.0409955814       -9.8086668647
 C        -3.4030929663        7.0252751844       -8.4178454044
 C        -4.4964802002        6.3395015576       -7.5249591553
 O        -4.3203928692        5.1897476072       -7.1961726897
 C        -5.5613233525        7.2232049135       -6.7359314527
 C        -6.4825478703        6.1849023775       -5.9604473332
 C        -7.4970690018        5.2829445053       -6.8128317002
 O        -7.2406055869        4.6311719986       -7.8142099598
 C        -8.8631548949        5.2152544088       -6.1615690344
 C        -8.7464066954        4.4515440249       -4.7768254391
 O        -7.6546665067        3.9752476032       -4.4683693739
 C       -10.0768455603        4.2296977344       -4.0761020334
 C       -10.0432605623        2.8507016101       -3.2652800389
 C        -9.7401433021        1.7143751054       -4.1934127703
 O       -10.2630554421        1.8082767554       -5.2865186658
 C        -9.0960737174        0.3355324702       -3.6910388083
 C        -7.9270061302       -0.1125031762       -4.5757225107
 O        -6.7859476495       -0.2581103729       -4.1869385598
 C        -8.3251993916       -0.3695170625       -6.0609723766
 C        -7.0248858856       -0.5420376178       -6.9742838738
 C        -6.0920763743        0.6901192605       -7.2448585468
 O        -6.5531854315        1.6564042237       -7.8124029239
 C        -4.5557108753        0.6742521152       -6.7994171711
 C        -3.6139200616        0.7797715506       -8.1084809393
 O        -3.3451381996        1.8820866370       -8.5162205667
 C        -3.0810882782       -0.4467190779       -8.8870875508
 C        -1.5847248627       -0.4963197526       -8.9789548974
 C        -0.9773187618       -1.7008585116       -8.1508344758
 O        -1.7091335046       -2.6012756471       -7.8010729214
 C         0.3323374819       -1.3969657177       -7.4009858163
 C         1.2336395726       -2.5691235331       -7.6539752276
 O         2.2219175004       -2.5125854378       -8.3331864507
 C         0.9548287257       -3.8945329507       -6.9263430023
 C         2.3958762773       -4.4906687396       -6.6728926976
 C         2.9335101284       -5.3233284477       -7.8659728466
 O         2.1142923029       -5.6806905961       -8.6870053104
 C         4.4806591578       -5.3391093767       -8.1232997120
 C         4.9599193707       -6.8074616586       -8.4298229437
 O         4.5602569913       -7.4623625482       -9.4121914410
 C         5.9885329089       -7.4943423323       -7.4696511727
 C         5.5168399411       -8.8693917637       -7.0848380252
 C         3.9700022141       -8.8814342867       -6.8957200563
 O         3.3583235815       -7.8240018092       -6.9546803042
 C         3.3280901903      -10.2739803570       -6.6791383870
 C         3.2995150340      -10.9456649582       -8.1361484510
 O         4.2934559883      -11.3594465438       -8.6300826153
 C         1.9075048314      -10.9897687934       -8.6885588237
 C         1.7474448730      -11.1439672071      -10.2259603122
 C         1.7075970654       -9.8283944057      -10.9960417871
 O         1.3150994121       -8.7961623666      -10.4076488416
 C         1.8902227715       -9.9441952690      -12.5424207615
 C         1.5214228720       -8.4394188415      -13.1579142258
 O         2.3850860010       -7.7896311024      -13.6430102767
 C         0.0177450375       -7.9359918969      -13.1416672092
 C        -0.2093303449       -6.6543100999      -13.8262538174
 C         0.2709297933       -5.3928356567      -13.0748531684
 O         0.9707185327       -5.4436286247      -12.0675261583
 C         0.0045128152       -4.0746228331      -13.8245430237
 C        -1.4883317512       -3.7688475923      -13.7307684296
 O        -2.0567147319       -3.5753532829      -12.6594567748
 C        -2.2961390018       -3.3384965348      -15.1388498274
 C        -3.7226284936       -2.7199736363      -14.9003735445
 C        -4.8712929912       -3.6741321008      -15.3369194681
 O        -4.7424686428       -4.8647673469      -15.2621871801
 C        -6.1647104136       -3.0269623885      -15.8716556493
 C        -5.8291979502       -2.0012264168      -17.0750817887
 O        -5.4776352872       -0.8433594440      -16.7898402264
 C        -6.0227924666       -2.4709634188      -18.4934181701
 C        -6.7497319234       -1.3229706163      -19.1851874011
 C        -8.2547255533       -1.2212592411      -18.7881531233
 O        -8.9049085224       -2.1382832885      -18.4604503011
 C        -8.9302959003        0.2817794127      -18.7750235198
 C        -8.4641819276        1.0624534398      -17.5249480964
 O        -8.5986099105        0.4829952064      -16.4629597715
 C        -8.2736220149        2.5671978374      -17.5595780394
 C        -8.8234348486        1.0154280093      -20.1290060313
 C       -10.3624848374        0.0018115813      -18.4437980047
 C        -7.1682723642       -4.1655056624      -16.2110884653
 C        -6.9128412641       -2.0826321781      -14.9273298146
 C         0.6387797939       -2.9501171899      -13.0270799418
 C         0.5345218322       -3.9904988158      -15.3100162712
 C         3.2955649754      -10.2844719843      -12.7063579790
 C         0.9227883067      -10.9293321527      -13.1966772410
 C         4.1925762688      -11.1365728348       -5.7885305141
 C         1.9304420115      -10.0687690991       -6.0386347356
 C         4.6909246269       -4.5338900295       -9.4943222173
 C         5.3284372592       -4.7250923391       -7.0109857032
 C         1.0552564389       -0.0879904917       -8.0283757794
 C        -0.1438751762       -1.0780947238       -5.8421318412
 C        -4.3051798345        1.9898833269       -5.9355125495
 C        -4.2142726145       -0.5916597803       -6.0174253986
 C        -8.5890578821        0.4151535431       -2.2816890086
 C       -10.3303747832       -0.7163897776       -3.8387778320
 C        -9.5752321137        6.5933709100       -6.0829660019
 C        -9.8011556923        4.3607499685       -7.0852246821
 C        -1.9555347624        6.7371876034       -7.8939371650
 C        -3.6072211061        8.5765977969       -8.2839487198
 C        -6.8770132496        4.8076182813      -13.7066725155
 C        -8.2815537863        3.9074021143      -11.9169610337
 H        -6.7554816762        2.1603656220      -14.0503438766
 H        -6.1625361448        0.9863714712      -12.8788571021
 H        -5.0018644665        1.8269288872      -13.6659940420
 H        -5.2420840626        6.7227754356      -12.8781825703
 H        -4.3544434415        5.3573702826      -12.4386349457
 H        -5.1789401692        7.5460438473      -10.5237110650
 H        -3.7300626141        7.6710534851      -11.5052735835
 H        -6.1382815235        7.8945099063       -7.3734954790
 H        -5.1291062745        7.8220059222       -5.9077985301
 H        -7.1264378057        6.8525370368       -5.2931580400
 H        -5.7171852416        5.4075805070       -5.5467096268
 H       -10.8793556526        4.2234296111       -4.8317088601
 H       -10.3063261618        5.1554993697       -3.4874950095
 H       -11.0345500428        2.5428434849       -2.8068580626
 H        -9.4089394745        3.0822165762       -2.4543424611
 H        -8.8691081368        0.4552657828       -6.5021699403
 H        -8.8204309094       -1.3519939893       -6.1169282976
 H        -7.4029337267       -0.9475169430       -7.8474548414
 H        -6.4299777921       -1.3612714301       -6.5446343928
 H        -3.5791086404       -0.3177911816       -9.9256128548
 H        -3.4722522512       -1.3513043836       -8.4521297736
 H        -1.2756193310        0.4249916368       -8.5775229340
 H        -1.2527786739       -0.4798068217       -9.9927463611
 H         0.4609148543       -4.6043829689       -7.6752838067
 H         0.3729837418       -3.9259592155       -6.0720078186
 H         2.2220400255       -5.1347737520       -5.7766859106
 H         3.1585185916       -3.7398721926       -6.4751813553
 H         5.9795671265       -6.9493422474       -6.5464339147
 H         7.0120822616       -7.5866522374       -7.8618920291
 H         5.8789967157       -9.2641057381       -6.0765035916
 H         5.8282061467       -9.6774485338       -7.8351096155
 H         1.3189212704      -10.0333204986       -8.5665827222
 H         1.5490018399      -11.7818468329       -8.1102689946
 H         0.7935794564      -11.8323690439      -10.3525852490
 H         2.5424211453      -11.6571995531      -10.7484699533
 H        -0.1825219012       -7.8386265025      -12.0176412541
 H        -0.6338626143       -8.6624431156      -13.7033978509
 H        -1.2972025002       -6.4236256246      -13.9496552290
 H         0.1871880507       -6.4447239486      -14.7632160821
 H        -2.4272436971       -4.2691681806      -15.7320017467
 H        -1.5120524182       -2.6405421776      -15.7011900835
 H        -3.7512772549       -1.8509177560      -15.4883541763
 H        -3.8293790621       -2.4298738372      -13.8004306183
 H        -6.5580340127       -3.4404094646      -18.4833223443
 H        -5.0737125010       -2.7838941259      -18.9871105831
 H        -6.5649014188       -1.2585651773      -20.2957947202
 H        -6.2915197961       -0.3847618582      -18.6591188448
 H        -7.5693705959        2.9020178123      -18.3227900075
 H        -8.0134985934        3.0232160942      -16.6079405866
 H        -9.2221577743        2.9980378050      -17.7917647830
 H        -7.8363674302        0.8911235076      -20.6104364575
 H        -9.1619570184        2.0444710925      -20.0603839605
 H        -9.4631124603        0.4940655712      -20.7846060038
 H       -10.3748344567       -0.3792990194      -17.4271246088
 H       -10.8397605512       -0.5274303626      -19.2325144688
 H       -10.8465263614        1.0083813806      -18.3926873978
 H        -8.0533897820       -3.6917825842      -16.5573143580
 H        -7.4383217418       -4.7572482202      -15.3011573469
 H        -6.8608511737       -4.8781018603      -16.8822314783
 H        -6.2832806153       -1.2305969217      -14.6400839965
 H        -7.2195902402       -2.5887767854      -14.0225783300
 H        -7.8692293976       -1.6672886924      -15.3532684874
 H         0.2339677221       -1.9825167064      -13.2647257706
 H         1.6905849830       -3.0212296489      -13.2293572313
 H         0.3683724901       -3.2580110426      -12.0295985089
 H         0.4573324729       -3.0005279405      -15.6952494998
 H         0.1341416793       -4.7310884664      -16.0295437511
 H         1.6121359544       -4.2740310564      -15.3645822235
 H         3.5332043855      -10.2082856702      -13.7768123154
 H         3.5599874357      -11.2197551081      -12.3490056845
 H         3.9726097214       -9.5426824198      -12.1991410080
 H         0.8169323846      -10.8550164464      -14.2332473615
 H        -0.0146604950      -10.6660025508      -12.7484506251
 H         1.2795688725      -11.8725278973      -12.9670537589
 H         4.2445735488      -10.8252238895       -4.7742632781
 H         5.0990780013      -11.2587387755       -6.2906626315
 H         3.9593843946      -12.1139187895       -5.7934117072
 H         1.8835477871       -9.9170939937       -4.9717272831
 H         1.2608979808      -10.9860610187       -6.1391482975
 H         1.5093800596       -9.1682597306       -6.5250817225
 H         5.7477359010       -4.3161132661       -9.6948918798
 H         4.0945040968       -3.6029407671       -9.5418562048
 H         4.4066820049       -5.1462511606      -10.3258717746
 H         5.0111766030       -5.2416437936       -6.0799703667
 H         5.0193628348       -3.6794331635       -6.9339396174
 H         6.4152654551       -4.7117308607       -7.2199619965
 H         1.0332042068       -0.1283301280       -9.0842972165
 H         2.1376158425       -0.0019354604       -7.6623664579
 H         0.4009452408        0.8114451152       -7.7361172017
 H        -0.8453115353       -0.3222208996       -5.8206947218
 H         0.7262988623       -0.8677282026       -5.2421686665
 H        -0.7309714074       -1.8220081378       -5.4239253403
 H        -4.9558123238        1.9984158716       -5.0680004926
 H        -4.4169747950        2.8696620031       -6.5677113005
 H        -3.2850206843        1.8817228293       -5.5683074928
 H        -4.8155635955       -0.7076319932       -5.1212749014
 H        -3.1514494188       -0.7647701703       -5.7015748924
 H        -4.4498933980       -1.4779754044       -6.5770825186
 H        -9.2649011960        1.0735850379       -1.6472987213
 H        -7.5709271253        0.8636410706       -2.3480983525
 H        -8.4783977936       -0.5013670690       -1.7541176279
 H       -11.2255146847       -0.4013076636       -3.3261531853
 H       -10.1462104028       -1.7698176142       -3.5168336608
 H       -10.5909503475       -0.7858128654       -4.8777172921
 H       -10.6152502364        6.5826374644       -6.3035512096
 H        -9.1272048228        7.3339218027       -6.6816590585
 H        -9.4411622721        7.2117126510       -5.1509758083
 H        -9.5862951142        3.3347824542       -7.1771428888
 H        -9.7257533976        4.8232007212       -8.0128867702
 H       -10.7819322592        4.6093173171       -6.6809761618
 H        -1.7374847335        7.5201837650       -7.1381466531
 H        -1.2559448737        6.9428398891       -8.6427071571
 H        -1.7985097033        5.7139710388       -7.5666886568
 H        -4.6809005521        8.7102054043       -8.6785151064
 H        -2.8671532998        9.1117197114       -8.8165988384
 H        -3.5930562152        8.8112376103       -7.2056170019
 H        -5.8841471672        4.9654930847      -14.1556991327
 H        -7.4454804072        5.7425434650      -13.6875387491
 H        -7.3566091811        4.0703700002      -14.3512114268
 H        -8.8587892130        4.7227211087      -11.7255330591
 H        -8.3436102641        3.4036452505      -11.0154426848
 H        -8.7083055921        3.2300643444      -12.6885762306
 Na       -5.3237525551        3.6026772706       -8.7167407762
 Na        2.3606249707       -6.7992728187      -10.6540017228
