232

 C        -6.0226011465        2.0315643942      -13.1325419987
 C        -6.0959493148        3.1171532139      -12.1046783684
 O        -5.5310249894        2.9031721283      -11.0936887210
 C        -7.0183388879        4.3765673770      -12.2453713806
 C        -6.2758008872        5.4353758002      -11.2727903411
 O        -6.6656593835        5.5255764413      -10.1463391977
 C        -4.9560498862        5.9796076705      -11.7830858049
 C        -4.3098595793        7.0319351291      -10.7854452922
 C        -3.6395174102        6.3528067552       -9.6110341612
 O        -3.4168979842        5.1267218697       -9.6774260313
 C        -3.1901763405        7.1037241270       -8.3451557292
 C        -4.2833773828        6.2877564563       -7.3682405321
 O        -3.9595685798        5.1483092041       -7.0087428373
 C        -5.5429327061        7.0502740773       -6.8936887036
 C        -6.4889576930        6.1954686822       -6.0152882422
 C        -7.5132462156        5.3391386449       -6.7932878648
 O        -7.1465117978        4.5861382412       -7.6700672444
 C        -9.0474843524        5.3429936572       -6.2242196911
 C        -8.8643821412        4.5730771591       -4.8566711703
 O        -7.8174524087        4.0178446743       -4.6197094723
 C       -10.1652793708        4.3837871989       -3.9074047917
 C       -10.0423788780        2.9037101866       -3.4847341533
 C        -9.8397724587        1.7012595382       -4.4194933388
 O       -10.1533768461        1.6977860618       -5.5933244245
 C        -9.2868136469        0.3900436983       -3.7597683128
 C        -7.9701637162       -0.0283909416       -4.6420012218
 O        -6.8914647729       -0.0920222335       -4.0881521941
 C        -8.1589186982       -0.3537840336       -6.1703637119
 C        -6.9144449983       -0.6613132741       -6.9898607869
 C        -6.0915076157        0.5574385931       -7.3841679440
 O        -6.5922711920        1.4538803740       -7.9998797124
 C        -4.6018006297        0.7139931077       -6.8761961652
 C        -3.7779218257        0.8508725337       -8.1643875134
 O        -3.4430469395        1.9299873403       -8.6211174678
 C        -3.4015145869       -0.4470755738       -8.9545103764
 C        -1.8123980145       -0.5935573138       -9.1391078788
 C        -1.1180767888       -1.4951264310       -8.1695256641
 O        -1.6720398898       -2.5106996017       -7.7819134003
 C         0.3727872458       -1.2429830844       -7.5052781125
 C         1.2611893930       -2.6191868788       -7.9096216859
 O         1.9780966301       -2.6196243984       -8.9046617906
 C         1.1344873862       -3.9208128282       -7.1164452542
 C         2.3559885076       -4.7041964540       -6.6176110754
 C         2.9552985947       -5.4129994016       -7.8557579463
 O         2.1605564432       -5.9638929588       -8.5895696182
 C         4.4656944374       -5.3115304111       -8.0930309066
 C         4.9901404373       -6.8078991896       -8.3076198471
 O         4.5993819311       -7.3277971331       -9.3163357679
 C         6.0073669833       -7.4821551730       -7.4519610962
 C         5.6578510854       -8.8138790898       -6.8235797019
 C         4.0634071236       -8.9467635026       -6.6202234817
 O         3.3728135286       -7.9597671280       -6.7716147016
 C         3.4961492749      -10.3658415220       -6.5151735993
 C         3.3230439007      -10.8959082498       -7.9605940596
 O         4.2803126630      -11.2798781278       -8.6039701442
 C         1.8453547330      -10.8581024376       -8.6380885519
 C         1.7884179114      -11.2105510417      -10.1561473039
 C         1.6251128550       -9.9207922164      -11.0050280910
 O         1.5196465287       -8.8770178908      -10.4137897070
 C         1.6719668791       -9.9658098582      -12.5611567042
 C         1.2885748468       -8.5907836464      -13.1418448670
 O         2.1200071556       -7.7411400840      -13.3982839485
 C        -0.1590106699       -8.0813787108      -13.0967188406
 C        -0.3625653478       -6.7465204151      -14.0113216127
 C         0.2395153024       -5.4782800742      -13.2593929898
 O         1.0787351433       -5.6099328875      -12.3835017529
 C        -0.0337574447       -4.0628320039      -13.8554041563
 C        -1.5403206741       -3.5431850509      -13.9042679690
 O        -2.0528811884       -3.3551700147      -12.7975123788
 C        -2.2845464889       -3.3403657118      -15.1869312174
 C        -3.6263458374       -2.6190522944      -14.9285753410
 C        -4.8246268231       -3.5506685571      -15.2385338167
 O        -4.8142230111       -4.7231678341      -14.8821470728
 C        -6.1999395371       -2.9338344171      -15.8191160579
 C        -5.8291815169       -2.0590300013      -17.0862736084
 O        -5.1198014493       -1.0985950325      -16.9240222015
 C        -6.2915074541       -2.4280529849      -18.5845562223
 C        -6.9948119035       -1.2391887161      -19.2823064192
 C        -8.4402533513       -1.1864716285      -18.7194258292
 O        -8.9178228695       -2.2338932586      -18.2434783437
 C        -9.2281666046        0.2538539378      -18.7042266838
 C        -8.6640758832        0.9940914329      -17.4544419638
 O        -8.5934740618        0.4924792895      -16.3442785889
 C        -8.1601529262        2.4080693012      -17.7066163841
 C        -8.7353565584        0.8098026896      -20.0450809054
 C       -10.8801818165        0.1368262238      -18.6434249275
 C        -7.1956689068       -4.0554080543      -16.1134925765
 C        -6.6191762012       -1.9554375359      -14.6844362184
 C         0.7897965902       -2.9958937649      -12.9360035033
 C         0.6077879349       -4.0048781770      -15.2362253058
 C         3.2417343641      -10.0907944774      -12.9831867234
 C         0.9212376555      -11.2512539897      -13.1204265960
 C         4.2948648230      -11.3628883852       -5.7054250379
 C         2.0562190153      -10.2462659717       -5.8377780921
 C         4.8113708493       -4.5510978117       -9.3537592766
 C         5.2210827787       -4.6548991696       -6.8829687626
 C         1.1583381527        0.0030142886       -8.0154883386
 C         0.1590634771       -1.0847037291       -5.9838257843
 C        -4.4521800010        1.9966149704       -5.9955293474
 C        -4.0427039879       -0.5008375361       -5.9568954639
 C        -8.7957181875        0.6139540344       -2.2801408283
 C       -10.3217141285       -0.6702027667       -3.7494541920
 C        -9.4676709383        6.7562706735       -5.9715824281
 C        -9.9424800300        4.4897305065       -7.1127311077
 C        -1.6651881819        6.7137018864       -8.2882181615
 C        -3.4208755493        8.5949019770       -8.7053689786
 C        -7.0121819584        4.7937111880      -13.7255976022
 C        -8.3620596251        3.9580789984      -11.7728463175
 H        -6.8132070577        2.1497936517      -13.8853622681
 H        -6.0505491154        0.9919946292      -12.6764867815
 H        -4.9946198096        2.0404951590      -13.5815871771
 H        -4.9602006080        6.4060410055      -12.7651286935
 H        -4.2009189498        5.1754302432      -11.9171732399
 H        -5.0778261003        7.8653033157      -10.4759167249
 H        -3.5280354270        7.5335893729      -11.3825551452
 H        -6.0648782847        7.5554605689       -7.7219178817
 H        -5.0884802483        7.8079413603       -6.2407247369
 H        -6.9618782290        6.7734267171       -5.2862671990
 H        -5.8219994437        5.4854514416       -5.6259445150
 H       -11.1813298605        4.5580675627       -4.2933428825
 H       -10.0691137298        4.9693666293       -3.0056207967
 H       -10.8561019571        2.7679631276       -2.8110444718
 H        -9.1432965651        3.0096599842       -2.8453432841
 H        -8.7065333074        0.4748443333       -6.6591668965
 H        -8.6632014630       -1.3090078716       -6.1965620618
 H        -7.2945279484       -1.2300042618       -7.9155333718
 H        -6.3445304735       -1.3921989723       -6.4171172358
 H        -3.8427701609       -0.2964648228       -9.9111068124
 H        -3.8718887524       -1.3134603391       -8.4827175825
 H        -1.2945710652        0.3984399151       -9.1707544543
 H        -1.6682288313       -1.0005041574      -10.1585377656
 H         0.4684381880       -4.5446473777       -7.6087352247
 H         0.6191249955       -3.5410573145       -6.1569637999
 H         2.1379033684       -5.5355800680       -5.9320109837
 H         3.0671504809       -3.9726542705       -6.1495406513
 H         6.3889087022       -6.8669554442       -6.5912098882
 H         6.8374050121       -7.4878365492       -8.2014424472
 H         6.0681026500       -9.0334855408       -5.8829285429
 H         5.8887446884       -9.6761364353       -7.4205219481
 H         1.4713865241       -9.8346098147       -8.6593772986
 H         1.2427200112      -11.6159841098       -7.9659261948
 H         0.9603021932      -11.8383174277      -10.1470730602
 H         2.6148384233      -11.8797977594      -10.5018110298
 H        -0.2759177303       -7.9351277156      -12.0435042468
 H        -0.8796050392       -8.7620972832      -13.5151745908
 H        -1.4210458435       -6.5604276610      -14.2112580726
 H         0.2101173729       -6.6167184564      -14.9710886123
 H        -2.4007818074       -4.3234218972      -15.6205147325
 H        -1.6625059054       -2.7997925733      -15.7711844265
 H        -3.5320058951       -1.6199811390      -15.4504997482
 H        -3.7269922144       -2.4237310405      -13.8756116612
 H        -6.8051041192       -3.3729993032      -18.7305337485
 H        -5.4052432113       -2.5920716440      -19.1926075922
 H        -7.1158535768       -1.5387532127      -20.3018216943
 H        -6.4482171601       -0.3431677060      -19.2126757066
 H        -7.1661894210        2.4494865197      -18.1563593481
 H        -8.0903050989        2.9005103130      -16.7254458127
 H        -8.8206086343        3.1001310091      -18.2895506439
 H        -7.8029625262        1.3445113961      -19.9051311140
 H        -9.4406638457        1.5555576134      -20.4239087470
 H        -8.6272616968       -0.0198002831      -20.8235439073
 H       -11.1858072867       -0.3725635822      -17.7124117835
 H       -11.1190901316       -0.4364265664      -19.5568176344
 H       -11.3887534718        1.0516901119      -18.6612787197
 H        -8.1180376918       -3.7008427672      -16.6483352213
 H        -7.5625562446       -4.5329353587      -15.2347523019
 H        -6.7060169183       -5.0098387807      -16.5806991875
 H        -6.0328402070       -1.0210992616      -14.7388000274
 H        -6.6755783843       -2.3505500491      -13.6256797160
 H        -7.6454733381       -1.6812787959      -14.8609623129
 H         0.7872890282       -2.1481785594      -13.6158203923
 H         1.8256775402       -3.3794765371      -12.9567514168
 H         0.3166374283       -2.7632387538      -11.9744715325
 H         0.6352785087       -2.9586150320      -15.6322174595
 H         0.0924313705       -4.6464010352      -15.9679495489
 H         1.6034670540       -4.4077665874      -15.2951454789
 H         3.3990914612      -10.2814418454      -14.0709539002
 H         3.6533158037      -10.9756976879      -12.4253201954
 H         3.7422093261       -9.2487264141      -12.5946717634
 H         1.2817820662      -11.3528465287      -14.1841417509
 H        -0.1696414996      -11.1319353024      -13.0361973451
 H         1.4320519548      -12.1506095471      -12.6713880055
 H         4.1477877810      -11.1861128985       -4.6138264622
 H         5.3935996480      -11.3368733539       -5.9732217094
 H         4.1121921048      -12.5033706685       -5.8749106760
 H         2.2569990399       -9.9624944137       -4.7872536569
 H         1.5860863993      -11.1724528469       -5.6895844726
 H         1.4272058906       -9.4575545066       -6.2296602509
 H         5.8339314069       -4.7079377895       -9.6782281548
 H         4.7769006334       -3.4943411512       -9.1203592453
 H         4.1736243918       -4.7771219083      -10.2359558948
 H         4.8968529706       -5.1848615331       -5.8936312713
 H         4.9963526122       -3.6412033051       -6.6915283515
 H         6.2001130322       -4.7726945439       -7.1745193138
 H         1.3483463762        0.0052332555       -9.1316396152
 H         2.0884828965       -0.0946025865       -7.5304497287
 H         0.6498109360        0.9062309310       -7.7730171991
 H        -0.6465803124       -0.2397949390       -5.7525488435
 H         1.0619761846       -0.7164034488       -5.5407739352
 H        -0.2165463232       -1.9839874713       -5.4071013025
 H        -4.8652010009        1.6973666996       -5.0111346504
 H        -5.1566491561        2.6634689392       -6.4632761079
 H        -3.4713727576        2.4211513186       -5.8184354358
 H        -4.7733191845       -0.6064597538       -5.1387655740
 H        -3.0850030236       -0.3662030741       -5.5114037705
 H        -3.9320134250       -1.5573424941       -6.2995214547
 H        -9.6330023439        0.6919333079       -1.6197645711
 H        -8.1444632631        1.4269776015       -2.1342147842
 H        -8.2575645363       -0.2591826671       -1.8975711780
 H       -11.1318238047       -0.4658222100       -3.0341401206
 H        -9.8390070139       -1.5949792231       -3.5332215677
 H       -10.8811624601       -0.7821363064       -4.6872263061
 H       -10.1292775214        7.0005570004       -6.7840284026
 H        -8.6997414060        7.5644577316       -5.9066247188
 H       -10.0235270903        6.9750181191       -5.1037610393
 H        -9.4293888541        3.5116921054       -7.2062788789
 H        -9.8907935810        5.0148469137       -8.1271986514
 H       -10.9179401535        4.3714808809       -6.6749156342
 H        -1.0447731372        7.4767693471       -7.9804008347
 H        -1.3266727804        6.3483977763       -9.2765017667
 H        -1.5871333806        5.8782833058       -7.6359282779
 H        -4.4246381528        8.8623685346       -8.6540591962
 H        -2.8575713323        8.7401785923       -9.6274870258
 H        -2.9499123905        9.1869625430       -7.9385973109
 H        -6.0729652838        4.5070489386      -14.1793905251
 H        -7.1465285298        5.8756698764      -13.8265578547
 H        -7.7196619025        4.1922688365      -14.2962066035
 H        -8.8688724280        4.8035187764      -11.1430704025
 H        -8.3448455829        3.0809980095      -11.0509995229
 H        -9.0698227981        3.6369696391      -12.5313850724
 Na       -5.2359836607        3.4886203287       -8.8085686441
 Na        2.5241172079       -6.7493742698      -10.7613321668
