232

 C        -6.1006717265        2.0212981157      -13.2120045814
 C        -6.1840333445        3.0021297161      -12.0426833953
 O        -5.5755236246        2.6082253461      -11.0040877578
 C        -7.0206015003        4.3374930549      -12.1475733979
 C        -6.2607315806        5.3105171676      -11.3254575671
 O        -6.5223609820        5.5062283089      -10.1162229456
 C        -5.0576463858        6.0495936641      -11.9442714572
 C        -4.3011484283        6.8708351422      -10.9192108304
 C        -3.6345866190        6.1302304934       -9.8230820820
 O        -3.5485378751        4.9587893034       -9.9439422771
 C        -3.1181472812        6.9782535804       -8.3458162398
 C        -3.9852476555        6.3519214634       -7.2860784326
 O        -3.5645831039        5.3912286350       -6.7205406669
 C        -5.4448449160        6.9516128835       -7.1374936349
 C        -6.2195346052        6.1474019359       -6.1359991324
 C        -7.3871911706        5.4200833631       -6.7921974121
 O        -7.1225413311        4.5215786837       -7.5623030749
 C        -8.9125563180        5.4125901584       -6.3061587334
 C        -8.9126072894        4.4806503073       -4.9321374548
 O        -7.8107537554        4.1363578527       -4.5384192220
 C       -10.2516271947        4.2364512686       -4.2776125522
 C       -10.2271652732        2.9167752898       -3.3853009551
 C        -9.9032521620        1.8241544571       -4.2907315151
 O       -10.1062348857        1.9912190192       -5.4832903819
 C        -9.2331878652        0.4530818813       -3.8228272766
 C        -8.0141683963        0.0694796488       -4.7345281342
 O        -6.9076564606        0.0279581653       -4.2631109743
 C        -8.2929283234       -0.2413567352       -6.1909323379
 C        -6.9039706670       -0.6860510434       -6.8559533360
 C        -6.0382239401        0.4241474379       -7.3011345862
 O        -6.5064557460        1.2314179032       -8.1517977351
 C        -4.5235371703        0.6825438674       -6.8273442785
 C        -3.8042992359        0.8108503883       -8.2051228438
 O        -3.6457807296        1.9296838290       -8.7313605185
 C        -3.2186610527       -0.4464265106       -8.9181178967
 C        -1.7005831469       -0.5808708791       -9.1373688618
 C        -1.0826583092       -1.4660587318       -8.0977729384
 O        -1.7424692125       -2.4137288932       -7.7267169841
 C         0.3266476884       -1.1399256713       -7.6601316347
 C         0.9977702015       -2.5713585034       -8.0713479306
 O         1.7183172978       -2.7139183274       -9.0112512890
 C         0.7975079466       -3.8645240429       -7.0702524087
 C         2.0894916543       -4.6555655201       -6.8028562090
 C         2.9310798712       -5.2931405830       -7.8408544981
 O         2.3468980385       -5.9194471174       -8.7033339848
 C         4.5086134091       -5.2835635797       -8.0518487578
 C         4.9167523470       -6.8005238184       -8.3634209809
 O         4.5731588623       -7.4357535255       -9.3708422897
 C         5.9403431490       -7.5306720951       -7.4957924978
 C         5.6290544098       -8.9301451570       -6.9788314245
 C         4.1706794183       -9.0443366245       -6.5014031727
 O         3.4255994247       -8.0827563504       -6.3645524345
 C         3.4760057156      -10.4607837067       -6.3972482939
 C         3.1632129651      -10.9016322497       -7.8971430834
 O         4.1657670870      -11.1292582041       -8.5509136610
 C         1.7499346296      -10.8799905309       -8.5954524571
 C         1.9296810450      -11.1458000094      -10.1038104547
 C         1.6938340921       -9.9267794332      -10.8964226129
 O         1.7191516365       -8.7894377263      -10.4117687935
 C         1.6893356188       -9.9678173568      -12.4943975106
 C         1.1580267543       -8.5551634616      -12.9718900233
 O         2.0567130354       -7.7865504041      -13.2852503237
 C        -0.2149674377       -8.1745153158      -13.1788081148
 C        -0.4650942068       -6.8660599359      -13.8671705514
 C         0.3284959999       -5.5255734439      -13.3084943735
 O         0.9437095588       -5.6411541978      -12.2888308388
 C         0.1687697201       -4.0507538243      -13.9298293327
 C        -1.3741902784       -3.5695123704      -13.8100866737
 O        -1.8926438501       -3.2604910831      -12.7830777568
 C        -2.2099159164       -3.4132699818      -15.1397592750
 C        -3.5351492648       -2.6648805589      -15.0050446059
 C        -4.7281775692       -3.5370230513      -15.1887847389
 O        -4.8280399217       -4.6594752149      -14.7893801602
 C        -6.0697044829       -2.7834539199      -15.7489284295
 C        -5.6727440874       -2.1125810495      -17.1054313457
 O        -4.9190216313       -1.1299798430      -17.1672401365
 C        -6.2811704600       -2.5537643780      -18.4035656878
 C        -7.2544483514       -1.5023948764      -19.0240403304
 C        -8.7037128554       -1.2549995470      -18.4878747877
 O        -9.3551219338       -2.1072692425      -17.9561852368
 C        -9.2479581718        0.1740074387      -18.7707135760
 C        -8.6338173032        0.9613952673      -17.5409429105
 O        -8.7709096333        0.4809152961      -16.4220118435
 C        -8.1180665631        2.3570619160      -17.6875769857
 C        -8.9381692174        0.9325763893      -20.1613007819
 C       -10.8147657344       -0.0904557996      -18.7206993431
 C        -7.1822788214       -3.8118805602      -15.9920398766
 C        -6.6289935107       -1.7626611854      -14.6732205119
 C         0.9005161427       -3.0734541378      -12.9211109793
 C         0.6170393507       -4.1527465916      -15.3717920096
 C         3.2125443047      -10.2146752963      -13.0043394219
 C         0.8063774255      -11.0963197960      -13.1042101534
 C         4.4514744279      -11.5195561348       -5.7874736374
 C         2.2517067783      -10.3534195463       -5.5221570777
 C         4.7700051797       -4.3975599345       -9.2575814764
 C         5.2544343752       -4.6427065270       -6.8799351558
 C         0.9203450412        0.0194176606       -8.3837805685
 C         0.4776002129       -1.1012660243       -6.1607284137
 C        -4.6111812271        2.0622441195       -6.0676016900
 C        -3.9754624792       -0.3993019218       -5.8795162967
 C        -8.7533079784        0.4736571483       -2.3413908267
 C       -10.2646178545       -0.6912929588       -4.0351449192
 C        -9.5193281140        6.8346803206       -5.9889392609
 C        -9.7464723594        4.8852206209       -7.4675296554
 C        -1.6500328898        6.6832929071       -8.0076190872
 C        -3.2947741567        8.5582019140       -8.4633371791
 C        -7.1420132796        4.8977802698      -13.5446008378
 C        -8.4942234493        4.2844067661      -11.5254983319
 H        -7.0802695779        1.8363969477      -13.6510723933
 H        -5.6978849065        1.1283765309      -12.8501602106
 H        -5.4022432747        2.2900320793      -13.9717572868
 H        -5.4046574479        6.8020622829      -12.6891808516
 H        -4.3951243245        5.4502208898      -12.5314882393
 H        -5.0527793440        7.4771321401      -10.5367587767
 H        -3.5808761997        7.5901847067      -11.3387285049
 H        -5.9979715868        6.8900438939       -8.0687161514
 H        -5.3201503011        7.9991504398       -6.8543304137
 H        -6.5948337345        6.7978494084       -5.2415198309
 H        -5.5377489936        5.3235259401       -5.6696030292
 H       -11.0050412686        4.1458267778       -5.0442589663
 H       -10.4329802709        5.1145937086       -3.6000200591
 H       -11.1535359948        2.9012150992       -2.7523726108
 H        -9.4030509054        3.1257081452       -2.7153748509
 H        -8.7149016481        0.7127187336       -6.5699670209
 H        -8.9962712666       -1.1338369792       -6.1911057924
 H        -7.0509890689       -1.2824933799       -7.7387361779
 H        -6.4525662451       -1.3555112476       -6.0694358794
 H        -3.6503178404       -0.4127309156       -9.9447211486
 H        -3.6177525354       -1.3693798798       -8.4062806910
 H        -1.1799705833        0.3572656903       -9.2545887208
 H        -1.6665748557       -1.0392631708      -10.1511748753
 H         0.0412104515       -4.5292610453       -7.6507541689
 H         0.3660160572       -3.6332467144       -6.1354933867
 H         1.9456474079       -5.6133333553       -6.2715745085
 H         2.6730158011       -4.0518188425       -6.1933955878
 H         6.2036687292       -6.9966689801       -6.6162242701
 H         6.8960864754       -7.5008719857       -8.0527905323
 H         6.3154247555       -9.2691991560       -6.1336738983
 H         5.6258243475       -9.8516210260       -7.5955816597
 H         1.5449715749       -9.8186524121       -8.3084984468
 H         1.2658192599      -11.5852653994       -8.0256594636
 H         1.2965683974      -12.0547224321      -10.3479610383
 H         2.9177078257      -11.5650379671      -10.0352791004
 H        -0.7140033469       -8.1859118919      -12.1677441677
 H        -0.7872317114       -8.8725902841      -13.7976046207
 H        -1.4916152650       -6.5251623301      -13.6540749046
 H        -0.2884228514       -6.8147378529      -14.9240751888
 H        -2.5029532648       -4.4585568908      -15.3685861464
 H        -1.6175426223       -2.9557068627      -16.0488691003
 H        -3.5177907035       -1.9143557668      -15.7469298653
 H        -3.6414308181       -2.0930065694      -14.0361877602
 H        -6.7727143434       -3.5194509936      -18.2849804568
 H        -5.4947483503       -2.7521380886      -19.1424953238
 H        -7.3034076536       -1.6876871848      -20.1644551247
 H        -6.7568344860       -0.5209972650      -18.8980275023
 H        -7.0505798021        2.4479847586      -17.9474369985
 H        -8.2660887698        2.9475445590      -16.7941666115
 H        -8.6477484019        2.8327548102      -18.4753449078
 H        -7.8643850670        1.0369013409      -20.4026355500
 H        -9.3199354228        1.9675464541      -20.1887365025
 H        -9.4596883813        0.3496001414      -20.8688059220
 H       -11.0959479932       -0.6707919984      -17.8664349522
 H       -11.0414151888       -0.5978163279      -19.6430498545
 H       -11.3676090487        0.9183266281      -18.6261054504
 H        -8.0949168995       -3.2951163914      -16.2470221844
 H        -7.4559596414       -4.4947396359      -15.1384131958
 H        -6.9304348195       -4.5261614230      -16.6812000029
 H        -5.9617975810       -1.0033420202      -14.3600577634
 H        -6.9284756712       -2.3070486135      -13.8609321594
 H        -7.5726853371       -1.3039129013      -14.9783776026
 H         0.7685191023       -2.0583642842      -13.3005401601
 H         1.9001509168       -3.4000258226      -12.8239386881
 H         0.2902839826       -3.2053395246      -12.0483863728
 H         0.4757959000       -3.2127245787      -15.8448173386
 H         0.0554731243       -4.8425170991      -15.9436935643
 H         1.6774148411       -4.3687651028      -15.5198228696
 H         3.1789269124      -10.0876779579      -14.0796360967
 H         3.5724201763      -11.2601601925      -12.8756086307
 H         3.9246911005       -9.4602200089      -12.5130311018
 H         0.8220218037      -11.0802345406      -14.1817851399
 H        -0.1685036692      -10.9059256044      -12.6637614703
 H         1.2457444439      -12.0348019378      -12.8383356126
 H         4.9454324472      -11.0997569365       -4.8898331609
 H         5.2088401478      -11.9618309176       -6.4169250916
 H         3.9061502834      -12.3089965492       -5.3694060710
 H         2.4934275316       -9.9019580637       -4.5886988650
 H         1.8277058888      -11.3431103266       -5.2932556138
 H         1.5089367438       -9.7355069784       -5.9874216516
 H         5.8434954288       -4.3401334904       -9.5150823123
 H         4.5447967739       -3.3329935598       -9.1365672336
 H         4.2645923269       -4.8302668903      -10.0925308065
 H         5.0216405345       -4.9595427462       -5.9660178127
 H         4.8119893838       -3.5884479924       -6.8921751815
 H         6.3657887501       -4.6164283972       -7.1630987005
 H         1.1177169311       -0.2425656889       -9.3987708233
 H         1.8869445689        0.2168736730       -7.9206503412
 H         0.2259394771        0.8274416384       -8.3246262648
 H         0.6089486368       -0.1643349931       -5.7570698245
 H         1.4574867541       -1.6415959255       -5.8579985454
 H        -0.3341811221       -1.6507566930       -5.6591099886
 H        -4.7814411325        1.9650150765       -5.0154582224
 H        -5.3265728956        2.7091856615       -6.5960948502
 H        -3.5931900241        2.4848508009       -6.1247745736
 H        -4.4214624328       -0.5055751593       -4.9240942511
 H        -2.8817332078       -0.4036907491       -5.7666296026
 H        -4.0736232762       -1.3805197972       -6.2749906083
 H        -9.5390896256        0.7186651123       -1.6108530068
 H        -7.8753800191        1.1255509009       -2.0269802111
 H        -8.5112391793       -0.5853998392       -2.1051838285
 H       -11.1920445233       -0.4959612472       -3.5147628385
 H        -9.8427996060       -1.6915524407       -3.7496150668
 H       -10.6566232923       -0.7326272497       -5.0513861894
 H        -9.2625535073        7.6616518547       -6.7369655361
 H        -9.3696796777        7.2458635555       -5.0016802641
 H       -10.6735795085        6.8329648988       -6.0267748290
 H        -9.5618519174        3.8048878706       -7.6682881963
 H        -9.4875452658        5.5495710123       -8.2517542047
 H       -10.8228253857        4.9884125943       -7.1165644638
 H        -1.4592684018        7.0979701469       -6.9295264455
 H        -0.9641803519        7.2008585915       -8.7012886272
 H        -1.4083228857        5.5832044441       -7.9334965823
 H        -4.3487115623        8.8908895305       -8.6661092700
 H        -2.5582710875        8.8541697864       -9.2366245830
 H        -3.0835397729        9.0634081089       -7.5060433490
 H        -6.1934468701        5.0505138886      -14.0570605189
 H        -7.6317215177        5.8337656473      -13.3892191055
 H        -7.7505473890        4.2385362124      -14.1481772643
 H        -8.9748937002        5.2144575328      -11.6565329702
 H        -8.5588854089        3.9085190001      -10.5202518954
 H        -9.1227904198        3.5783148062      -12.0751508239
 Na       -5.2785944543        3.6710231750       -8.6728773740
 Na        2.7093073818       -6.8544700975      -10.9713975084
