232

 C        -6.2832003272        2.1319945728      -13.3304116897
 C        -6.3267742785        2.8513194320      -11.9376714992
 O        -5.7284513454        2.5717235094      -10.9596696105
 C        -7.0447571233        4.3357624846      -12.1081625720
 C        -6.1770919828        5.3700252161      -11.2639589419
 O        -6.3135976111        5.6176745315      -10.0645457290
 C        -5.0859596341        6.2332409595      -12.0047044155
 C        -4.3113365884        7.0499742067      -10.9580632042
 C        -3.5599513001        6.1692116137       -9.7509621384
 O        -3.4336284465        4.9149299673       -9.7485944238
 C        -3.0928162815        6.8713558807       -8.5611325165
 C        -3.9523001070        6.2763610879       -7.3607521348
 O        -3.5175881449        5.5063177686       -6.5350588974
 C        -5.3664493575        6.8769223968       -7.2669674285
 C        -6.2297195320        6.1815626442       -6.1539139570
 C        -7.3412288084        5.3303745955       -6.7445975250
 O        -7.0984279414        4.4830436602       -7.5616010686
 C        -8.8635498016        5.4714061372       -6.3154162359
 C        -8.9582323786        4.5370525543       -4.9902934227
 O        -7.9165434853        4.1678476741       -4.5118979923
 C       -10.3265681829        4.2150010532       -4.3984599733
 C       -10.2082558537        3.0395582829       -3.3744607882
 C        -9.8664685969        1.8438549828       -4.2665717442
 O       -10.0440461038        1.8953669385       -5.4846758184
 C        -9.2759675641        0.4552595857       -3.8274589876
 C        -8.0176631587        0.2170298745       -4.8050576467
 O        -6.9202307211        0.1234414968       -4.2802279346
 C        -8.1859635320       -0.1760786445       -6.2841919698
 C        -6.8735149633       -0.7646152422       -6.8334697900
 C        -6.0683769443        0.4454568397       -7.3902148303
 O        -6.4943521173        1.2427991407       -8.1937872227
 C        -4.4802713428        0.6620746713       -6.8949529086
 C        -3.7148610763        0.8297185259       -8.1457795749
 O        -3.6740913100        1.9033164778       -8.7923281794
 C        -3.3444094048       -0.4319778542       -8.9468158513
 C        -1.8204264232       -0.5065379520       -9.1333867381
 C        -1.2055894090       -1.4465421145       -8.0241834921
 O        -1.7809984364       -2.3970768619       -7.5154330778
 C         0.3825093637       -1.3042149956       -7.7035216442
 C         1.0021447734       -2.6273342213       -8.1135231365
 O         1.6819030606       -2.6632035636       -9.1092780313
 C         0.7733962424       -3.8216125576       -7.2741912548
 C         2.0515578399       -4.4746555638       -6.7503021850
 C         2.7479147174       -5.2864782836       -8.0377124594
 O         2.1677541164       -5.8315693756       -8.9449798938
 C         4.4131688916       -5.2979504784       -8.0825787434
 C         4.9665748581       -6.8336986278       -8.3471635109
 O         4.5935903746       -7.4147316557       -9.3278199489
 C         6.0218764212       -7.5232582464       -7.4420626227
 C         5.4640009865       -8.9495585109       -7.2066111105
 C         4.0853768165       -9.0470241693       -6.5470256631
 O         3.4927711010       -8.0723537624       -6.1432023833
 C         3.4512961526      -10.4995974704       -6.3293554616
 C         3.2375312019      -10.8327926698       -7.8212340342
 O         4.1771000960      -11.1481963513       -8.5746003259
 C         1.7776065556      -10.8813759107       -8.5751143497
 C         1.9081519597      -11.1334713641      -10.1152084683
 C         1.7494754495       -9.8763136961      -10.8545824861
 O         1.7774331900       -8.8257117946      -10.3075787398
 C         1.6278537490       -9.9292955755      -12.4893484814
 C         1.3304334199       -8.4983601419      -13.1294594051
 O         2.2530246292       -7.7007010834      -13.2623854020
 C        -0.1715895684       -8.1953512190      -13.1822358018
 C        -0.5693277973       -6.7738607604      -13.8071833558
 C         0.2247499797       -5.5478404199      -13.1154560594
 O         0.8830130046       -5.6640670246      -12.1205403297
 C         0.1325675558       -4.1495572059      -13.8639062107
 C        -1.3309974633       -3.5791678816      -13.8659393410
 O        -1.7203701612       -3.2819321380      -12.7206971714
 C        -2.1308094386       -3.5784606345      -15.1545764319
 C        -3.3963084727       -2.7292449253      -14.9872969701
 C        -4.7731580942       -3.4817764212      -15.0209835392
 O        -4.8333583078       -4.6845545884      -14.8775982043
 C        -6.0681016519       -2.7184102737      -15.6503068090
 C        -5.7010187529       -2.0767079204      -17.0957138458
 O        -4.9491973671       -1.1615012004      -17.2539332842
 C        -6.3389670852       -2.6896261445      -18.4385079952
 C        -7.1921038412       -1.5786131876      -19.0504325161
 C        -8.6820158144       -1.2849822935      -18.5345782068
 O        -9.3161023971       -2.0961439906      -17.8583231954
 C        -9.3637974202        0.1340335293      -18.7642882817
 C        -8.9028571033        1.0208622923      -17.5372350609
 O        -8.8414122054        0.4644667949      -16.4532655090
 C        -8.1257119631        2.4022434110      -17.6401010933
 C        -9.0026331063        0.6991548806      -20.1616839622
 C       -10.9392102781        0.1122227284      -18.6667787446
 C        -7.1111341970       -3.8071541668      -15.7852860730
 C        -6.5755951424       -1.5631045188      -14.7683217785
 C         1.0175091745       -3.1098535703      -13.0292113071
 C         0.6495355787       -4.2828962239      -15.3454415746
 C         3.1241155507      -10.2382517924      -12.9086294958
 C         0.5998547658      -11.0641299095      -12.9476610128
 C         4.5611561877      -11.5517542834       -5.8674831048
 C         2.2486626854      -10.4214462058       -5.3910107980
 C         4.7397835734       -4.3864542283       -9.2879374328
 C         5.1931170536       -4.6540304291       -6.8428341505
 C         1.1250238414       -0.2031847779       -8.5577177489
 C         0.5424491735       -1.0691627460       -6.1350429524
 C        -4.5636747833        2.0346910356       -6.1024584311
 C        -4.0328955055       -0.3714811211       -5.8993241446
 C        -8.7638187638        0.3803404243       -2.3866197732
 C       -10.3218181348       -0.5737259449       -4.1567305963
 C        -9.2881453104        6.8966146416       -5.9209784985
 C        -9.6728531661        4.9118238124       -7.5570916958
 C        -1.6667189590        6.5083717154       -8.0532890895
 C        -3.3527276704        8.4174359817       -8.4758437931
 C        -7.1867612707        4.7686426013      -13.5417952930
 C        -8.4385046237        4.1800474356      -11.4288846223
 H        -7.2609760078        1.8249546429      -13.6457343493
 H        -5.6384094075        1.2789973215      -13.2631827832
 H        -5.8592107061        2.7485883719      -14.0712075488
 H        -5.5187845323        6.8446509832      -12.7930046465
 H        -4.2887746799        5.6576952665      -12.5453438915
 H        -4.8942362344        7.9118533308      -10.6680829531
 H        -3.4070320266        7.5178670856      -11.3332732590
 H        -5.9225794801        6.9522204180       -8.2355385982
 H        -5.1106540084        7.8633961794       -6.9129019742
 H        -6.6322706237        6.9782886063       -5.4129684278
 H        -5.5460091034        5.4975510299       -5.4946253319
 H       -10.8939693853        3.7761149707       -5.1726556084
 H       -10.8393278315        5.1435398748       -3.9787058562
 H       -11.2303966570        2.8984298955       -3.0278106934
 H        -9.6396697386        3.4221867917       -2.5098197043
 H        -8.5410593424        0.6579109668       -6.8535410767
 H        -8.9300750118       -0.9885699708       -6.1430216549
 H        -7.0152636166       -1.4890235184       -7.6163551748
 H        -6.4301235770       -1.2405452950       -6.0193861802
 H        -3.9030190652       -0.3865684053       -9.8289120413
 H        -3.7238675905       -1.3601653984       -8.3180957539
 H        -1.3700077605        0.4392773824       -8.9794100041
 H        -1.5393653437       -0.7799812801      -10.1166121057
 H         0.1706462986       -4.5205608305       -7.7531135955
 H         0.2248881570       -3.4301658680       -6.4024245774
 H         1.8666586002       -5.2418634150       -5.9127833095
 H         2.7450303712       -3.7002641084       -6.3746223342
 H         6.1274827238       -6.9950409110       -6.4690313628
 H         7.0777255738       -7.6286518666       -7.7590571651
 H         6.1894472402       -9.6745659542       -6.7391567226
 H         5.2449883390       -9.5170883476       -8.1205030010
 H         1.4141054691       -9.9400660644       -8.2843767216
 H         1.3379883473      -11.7435830617       -8.0145515138
 H         1.1468377627      -11.8499261060      -10.2851929560
 H         2.8422200290      -11.7912431222      -10.1175554447
 H        -0.5387528823       -8.3089894925      -12.0867204202
 H        -0.7367275376       -8.9635317470      -13.7774198780
 H        -1.5121884976       -6.4410284861      -13.7390171669
 H        -0.1685622405       -6.6597991761      -14.8353074243
 H        -2.3602928386       -4.7065845495      -15.3833684709
 H        -1.4803828739       -3.1437754365      -15.9221554413
 H        -3.3776474069       -1.8852387199      -15.7295633688
 H        -3.2665256314       -2.2253433484      -14.0368313457
 H        -6.8920838318       -3.6586037558      -18.4136604458
 H        -5.4572993003       -2.8500475752      -19.1239855422
 H        -7.2978893125       -1.7729683643      -20.2446623101
 H        -6.6506122236       -0.6078785533      -18.9328039118
 H        -7.1124742413        2.1662035707      -17.9842010417
 H        -7.9949598563        2.8826762963      -16.7014796868
 H        -8.4958642943        3.1068911582      -18.3705564532
 H        -8.0346656476        0.5178522928      -20.5349664081
 H        -9.1745743271        1.7552963483      -20.2260357727
 H        -9.7734308491        0.1949737535      -20.7204307212
 H       -11.1908537734       -0.2302690383      -17.6778968897
 H       -11.4071525711       -0.5539354246      -19.4042103243
 H       -11.2870461554        1.1594675147      -18.7064194938
 H        -7.9908617176       -3.4125728720      -16.2028170769
 H        -7.4434330406       -4.2470484684      -14.9168275480
 H        -6.7620296997       -4.6473800600      -16.3976631782
 H        -5.7350143786       -0.9977468932      -14.3815399395
 H        -7.0777548598       -2.0022823902      -13.9167822793
 H        -7.3068086948       -0.9016390917      -15.1684784180
 H         0.6727040119       -2.1401879702      -13.3696684125
 H         2.0245012968       -3.3419002751      -13.2293749602
 H         0.7328448151       -3.2528945108      -12.0153346405
 H         0.5460463059       -3.2732316640      -15.8470109916
 H         0.0938125144       -4.9226566333      -15.9705730427
 H         1.7279765869       -4.4593581582      -15.4463829750
 H         3.1254353280      -10.0661306842      -13.9587260377
 H         3.4827110423      -11.3068594324      -12.8136832957
 H         3.7273378852       -9.5392340151      -12.4117531819
 H         0.4605362174      -10.9660363694      -13.9991373363
 H        -0.2540039132      -11.0310091566      -12.3798771258
 H         1.1153852921      -11.9883201229      -12.8072220154
 H         5.2988208744      -11.1722904143       -5.2352416080
 H         5.1153339628      -12.0120347900       -6.6344302957
 H         4.0437468904      -12.2860753347       -5.2763027939
 H         2.5540363024      -10.0893804472       -4.3503018708
 H         1.7412292997      -11.3761834013       -5.3386245862
 H         1.5257424997       -9.6867727428       -5.7966676966
 H         5.7712493633       -4.0651995376       -9.3293115421
 H         4.2666665008       -3.4239788716       -9.1765166645
 H         4.4539133608       -4.8343383345      -10.2395326863
 H         4.7560404752       -5.0411800614       -5.8595781885
 H         4.9169048685       -3.5870881816       -6.8021537693
 H         6.2256177327       -4.8025870486       -6.9592010451
 H         0.9129744113       -0.3868478186       -9.6859792420
 H         2.2008319506       -0.3247280553       -8.4270927029
 H         0.6955399265        0.7349435900       -8.2761338078
 H         0.6589445635       -0.0051726898       -5.9963361740
 H         1.3578526576       -1.4748313309       -5.6486740856
 H        -0.3050901360       -1.4718794861       -5.6287669385
 H        -4.7742598337        1.8792927011       -5.0470399117
 H        -5.1787204181        2.8013731653       -6.5694158414
 H        -3.5256876396        2.3301107259       -6.0556566043
 H        -4.4894762316       -0.3921495927       -4.9213803634
 H        -2.9882387887       -0.2564714190       -5.7434311553
 H        -4.0214181760       -1.4327514089       -6.1826430680
 H        -9.3080983350        1.0093461862       -1.7051141382
 H        -7.7828059845        0.8849333841       -2.3468541222
 H        -8.6790393139       -0.6611159259       -1.8930146605
 H       -11.2356685962       -0.5472571400       -3.5417358212
 H        -9.8223515215       -1.4951972975       -4.0054304786
 H       -10.7470484585       -0.5452619848       -5.1765377958
 H        -8.6144573660        7.7376374660       -6.2519450795
 H        -9.2926609212        6.9825004330       -4.8217514296
 H       -10.2622276358        7.2017747912       -6.2204817340
 H        -9.3420180061        3.9010193690       -7.6344103151
 H        -9.4900665051        5.5747009155       -8.3840915499
 H       -10.6954981343        4.8401433203       -7.2775475512
 H        -1.6263065139        6.3915159280       -6.9874219655
 H        -0.9011712851        7.2732801724       -8.3921789259
 H        -1.3818825519        5.5276164039       -8.4513417470
 H        -4.2980936965        8.7864719369       -8.7999943682
 H        -2.4892650924        9.0047247849       -8.9789114600
 H        -3.3234163495        8.5931359890       -7.3851539204
 H        -6.1836471116        4.9019396287      -13.9434015992
 H        -7.7900740099        5.6633644187      -13.6599399946
 H        -7.6656762036        3.9271133174      -14.0747352218
 H        -9.0946979939        4.9139293892      -11.8591667056
 H        -8.3778649412        4.2041245878      -10.3495327475
 H        -8.9208342026        3.3195967106      -11.5961684502
 Na       -5.3374428957        3.6807137843       -8.6541553877
 Na        2.7660402464       -6.8524169267      -11.0570473135
