232

 C        -6.4357455479        1.9646532997      -13.1537329023
 C        -6.4465048854        2.8933561174      -11.9467558308
 O        -5.9597201886        2.4755333598      -10.9272687613
 C        -7.0333784457        4.3771359099      -11.9329357777
 C        -6.0422397856        5.3635208514      -11.2244411719
 O        -6.1366142077        5.5973625549      -10.0167512401
 C        -4.9295757634        6.1345464424      -12.0460419467
 C        -4.1059137566        7.0175004102      -11.0060383534
 C        -3.5120846257        6.1528676969       -9.7900555651
 O        -3.7023857282        4.9548981274       -9.8712267911
 C        -3.0174663652        6.7699483360       -8.5031243977
 C        -3.8516412607        6.2825452430       -7.3335170519
 O        -3.3150970043        5.6328301835       -6.4671575684
 C        -5.3141672532        6.8635567980       -7.1791782939
 C        -6.0920092403        6.0399526163       -6.1136530080
 C        -7.3123059065        5.2017910990       -6.7214365184
 O        -7.1038318613        4.3039274267       -7.4744672037
 C        -8.8065296331        5.5799607336       -6.2719260598
 C        -8.9897995213        4.6181693944       -4.9205779965
 O        -7.9266336132        4.3361149811       -4.3976028662
 C       -10.3474472802        4.2342902477       -4.3765028094
 C       -10.3588225948        2.8878093481       -3.7038390834
 C        -9.9292069638        1.7974552652       -4.6156683215
 O       -10.0233206679        1.9234642095       -5.8287150408
 C        -9.3351626919        0.4989927517       -4.0158839235
 C        -8.0042712521        0.2161779104       -4.8592783462
 O        -6.9428140031        0.4512330503       -4.3024333539
 C        -8.2042760746       -0.3539638909       -6.1914552379
 C        -6.9310124005       -0.5608628961       -7.0807529024
 C        -6.0976167625        0.6406700083       -7.3546996755
 O        -6.5776955115        1.5689055588       -8.0412246349
 C        -4.6063230919        0.7316538654       -6.9065047000
 C        -3.7150750320        0.8547310516       -8.2681325510
 O        -3.4814287937        1.9497528175       -8.7939463220
 C        -3.2548927221       -0.4509140909       -8.9656977131
 C        -1.7889209957       -0.5845111721       -9.1517355867
 C        -1.0855444359       -1.3022976692       -7.9882271790
 O        -1.7708688077       -1.8291561142       -7.1269114179
 C         0.4460166676       -1.3496743133       -7.9163746673
 C         0.9206430121       -2.7608406081       -8.3034752611
 O         1.6201557556       -2.8951293235       -9.2727247067
 C         0.4520259314       -3.8898635594       -7.4800867320
 C         1.7313991609       -4.7051365955       -7.0884459433
 C         2.6732636741       -5.1096177313       -8.2379425807
 O         2.1142493630       -5.6203430241       -9.1600377066
 C         4.3602566947       -5.1554965421       -8.2504512174
 C         4.7720521783       -6.6431654701       -8.6274566759
 O         4.4951349413       -7.2361440893       -9.6570762568
 C         5.6311630643       -7.3426588490       -7.5784374852
 C         5.3693370847       -8.8826867286       -7.4037838301
 C         4.1889303878       -9.2016651953       -6.5002067196
 O         3.7116428942       -8.3607167633       -5.7491120929
 C         3.5919123900      -10.6474745055       -6.4962872383
 C         3.2283219202      -11.0666121351       -7.9813551203
 O         4.0632228197      -11.4359463859       -8.8138321756
 C         1.7011661072      -10.9334808559       -8.3362525194
 C         1.5350636121      -11.0412462970       -9.8894291216
 C         1.7978889921       -9.7718676279      -10.6004881583
 O         1.9617145549       -8.7409968556      -10.0274581410
 C         1.6859522616       -9.9558679614      -12.2955566997
 C         1.4106717769       -8.5362596902      -12.8916212599
 O         2.2911095266       -7.7347115966      -13.1210737124
 C        -0.0559929777       -8.1320019767      -12.9622037650
 C        -0.3666707781       -6.8228160987      -13.5752691297
 C         0.2588712483       -5.4758243716      -12.9199060361
 O         0.7578091056       -5.5504466845      -11.8259727265
 C         0.2931158873       -4.2922995004      -13.7934502614
 C        -1.1210822095       -3.6535019685      -13.7485046922
 O        -1.4234310690       -3.2096024267      -12.6562384718
 C        -2.0782457706       -3.6735864367      -14.8710071645
 C        -3.3341257453       -2.7954974037      -14.9279343675
 C        -4.6968262361       -3.5257463968      -15.1672888301
 O        -4.8192261452       -4.7153959114      -15.1118679578
 C        -5.9744701978       -2.6057319643      -15.5007119913
 C        -5.7416610455       -2.3113530813      -17.1896136715
 O        -4.9920242012       -1.4048197537      -17.4737244009
 C        -6.5825358391       -2.8895891384      -18.3125836089
 C        -7.3590908514       -1.7077423909      -18.9837928971
 C        -8.7596349727       -1.3173116303      -18.3785721262
 O        -9.3639649064       -2.1482972385      -17.6973269542
 C        -9.4389207910        0.0627380019      -18.6412073710
 C        -8.8890636508        1.0377383325      -17.5203987912
 O        -8.9425132880        0.7450877865      -16.3202177666
 C        -8.2421134618        2.2991074567      -17.9810547486
 C        -9.0864705128        0.6255360055      -20.0810339620
 C       -10.9748772199       -0.1851167637      -18.4405898775
 C        -7.2307337643       -3.4286390459      -15.3346052374
 C        -6.0826876537       -1.3368594295      -14.6643972991
 C         1.3330514369       -3.1927253252      -13.1446185508
 C         0.7399545780       -4.6446932620      -15.2197469614
 C         3.0104709905      -10.5342429488      -12.8265807432
 C         0.5213896142      -10.9356701142      -12.6115583729
 C         4.6944418588      -11.4456116050       -5.8672718813
 C         2.2478832662      -10.6272958928       -5.6158402410
 C         4.9139718462       -4.1979016867       -9.3778606751
 C         4.8845914093       -4.6076517082       -6.9344108010
 C         1.0063125541       -0.2247683134       -8.8810675328
 C         0.8688246137       -1.1099903365       -6.4397697468
 C        -4.4186574844        2.0594415357       -6.0855210283
 C        -4.0930286849       -0.4210763261       -5.9503948410
 C        -9.0454455961        0.6731829935       -2.5405385455
 C       -10.3197564449       -0.6090816742       -4.2076223377
 C        -9.1121165237        7.0888879003       -6.0420595745
 C        -9.8431991606        5.1874748262       -7.3522180671
 C        -1.5810467700        6.1976890830       -8.3512716357
 C        -2.9007967000        8.3068634893       -8.5217809866
 C        -7.3622703880        5.0438800634      -13.3176297060
 C        -8.2693467897        4.3149339260      -11.1141491360
 H        -7.4666858706        1.8680218493      -13.6253422307
 H        -6.0546576500        0.9519044060      -12.9445769161
 H        -5.8208187080        2.4699492208      -13.9011614203
 H        -5.3749395481        6.8442060900      -12.7640444281
 H        -4.2235736434        5.5252336895      -12.5913349107
 H        -4.6779998067        7.8244114555      -10.7039909325
 H        -3.3289221974        7.6482210363      -11.5257156997
 H        -5.7737998143        6.9683778471       -8.1590716720
 H        -5.1590406747        7.8627658253       -6.7792014476
 H        -6.4429551024        6.8376294389       -5.3970345691
 H        -5.4417548424        5.5416942912       -5.4268597884
 H       -11.0164600533        4.1139449841       -5.1764517609
 H       -10.6463176131        5.0839659422       -3.7024459250
 H       -11.3596759651        2.6970625665       -3.2558508389
 H        -9.7094035099        3.0962027740       -2.8679125800
 H        -9.0094733976        0.2477274836       -6.6958739874
 H        -8.7405429845       -1.3335228207       -5.8900142622
 H        -7.4354636279       -1.0197903072       -7.9590147039
 H        -6.3134198517       -1.3637560244       -6.5548867305
 H        -3.7876371989       -0.3752806308       -9.8937776715
 H        -3.8063036160       -1.2876931789       -8.3536956904
 H        -1.4040106086        0.4562564427       -9.2906020935
 H        -1.4835296253       -1.1181417689      -10.1223635607
 H        -0.3501105272       -4.5095302214       -8.0034836628
 H         0.0527184803       -3.6416444149       -6.4805319962
 H         1.3763820981       -5.5003652333       -6.4650297325
 H         2.3387849580       -4.1146521491       -6.4914753665
 H         5.4682766462       -6.8378401878       -6.6560291556
 H         6.7056301945       -7.2327894426       -7.7043941116
 H         6.1112062421       -9.5431146958       -6.8954243313
 H         5.2617232778       -9.4306033462       -8.3269217299
 H         1.2548076415       -9.9732981693       -7.9794888352
 H         1.3393496944      -11.6984335693       -7.7056067341
 H         0.4979993509      -11.4309772286       -9.8429238204
 H         2.1015587067      -11.8075827007      -10.3926936277
 H        -0.5461254536       -8.3126259394      -11.9956837840
 H        -0.6283705924       -8.8327622343      -13.5491299426
 H        -1.4208059923       -6.6677483464      -13.6716070892
 H         0.1896902884       -6.8311566194      -14.5523137456
 H        -2.4570573700       -4.6551606286      -14.9241558359
 H        -1.5664989591       -3.4598271350      -15.8371235650
 H        -3.2548263200       -2.0816301713      -15.7062163212
 H        -3.4341692344       -2.1408860940      -14.0298530161
 H        -7.2457723203       -3.6832785079      -18.0170629274
 H        -5.8656841947       -3.1785201884      -19.0725759922
 H        -7.5856285013       -1.9927099514      -20.0703023413
 H        -6.7685242488       -0.8693838790      -19.0647195887
 H        -7.4354856738        2.2022431521      -18.7618881726
 H        -7.7276944609        2.7271270938      -17.1280826859
 H        -8.9585059267        3.0041541591      -18.3897147840
 H        -8.0435433511        0.9865824458      -20.1446488434
 H        -9.8635083894        1.4156749636      -20.2638268245
 H        -9.2697507870       -0.1619204093      -20.8298627904
 H       -11.1443005308       -0.6384388501      -17.4972272646
 H       -11.4329463683       -0.8657637451      -19.1414886433
 H       -11.4640050360        0.8507156212      -18.5139625327
 H        -8.2060368054       -2.9502994116      -15.6271388708
 H        -7.4737094199       -3.6917041647      -14.2759674842
 H        -7.2124441272       -4.3532612704      -15.9440227661
 H        -5.4167957284       -0.5472220358      -15.0800764538
 H        -5.7723578618       -1.4644023164      -13.6430374347
 H        -7.1228382674       -0.9150969871      -14.6724856524
 H         1.4264311418       -2.2931061490      -13.8075734519
 H         2.1814192488       -3.8218555977      -12.9906368214
 H         0.8788899458       -3.0107721661      -12.1786785264
 H         1.1691395075       -3.7477565295      -15.6735429822
 H        -0.0212913590       -4.9974289362      -15.8291913569
 H         1.6053528721       -5.3348598447      -15.2267907355
 H         2.8143299071      -10.9248852693      -13.8189257462
 H         3.2884085091      -11.4680151045      -12.2025586763
 H         3.7765565764       -9.7404400537      -12.8228746799
 H         0.4296214104      -11.0078305116      -13.7439128620
 H        -0.3952436092      -10.6487256252      -12.0479492857
 H         0.8072680383      -11.8481763711      -12.0577762276
 H         5.0222727879      -11.1842133861       -4.8299046756
 H         5.6672606249      -11.1998918860       -6.3100109465
 H         4.4226788993      -12.5261067474       -5.9189338127
 H         2.4647076445      -10.4179996093       -4.5891995454
 H         1.7312690421      -11.5621170056       -5.7141957565
 H         1.5257045540       -9.9325045696       -5.9766479146
 H         6.0076169546       -4.0585163155       -9.2600017254
 H         4.5495737624       -3.1585514497       -9.3637534574
 H         4.7458618346       -4.6153581635      -10.3608640610
 H         4.3935183373       -5.1386565239       -6.0860674857
 H         4.7164291360       -3.5025820535       -6.9905784295
 H         5.9591361473       -4.7048786162       -6.7824879886
 H         0.7387212105       -0.4383728409       -9.9329162019
 H         2.0676138211       -0.1274116048       -8.7704733548
 H         0.5551646611        0.6439350460       -8.5550192780
 H         0.3300143405       -0.3441698398       -5.9072567197
 H         1.9391358371       -0.8001499896       -6.2866121425
 H         0.9490545389       -2.1361308238       -5.9767919045
 H        -5.1422742442        2.0030374320       -5.2829811921
 H        -4.6674947332        2.9646848603       -6.6776450512
 H        -3.4304738732        2.1285917041       -5.6127645245
 H        -4.7118148729       -0.3572890403       -5.0539392356
 H        -3.1009297320       -0.4076742608       -5.5011711930
 H        -4.2402695674       -1.4591477683       -6.2285223961
 H        -9.7925843325        1.0223049650       -1.9171663900
 H        -8.2702518055        1.4135680317       -2.4149149182
 H        -8.5917648065       -0.2632310231       -2.1402279549
 H       -11.1475793168       -0.4345578605       -3.5212237891
 H        -9.9761974711       -1.6157936058       -3.9403323713
 H       -10.7222352512       -0.6066980375       -5.2397591610
 H        -9.1716278631        7.7478163282       -6.9786088571
 H        -8.2277252396        7.5630365162       -5.5791714902
 H       -10.0134881298        7.2074570118       -5.4355981217
 H        -9.9297065649        4.0681646275       -7.3897897844
 H        -9.6671012620        5.7903545434       -8.2447183913
 H       -10.8821984707        5.5070160997       -7.0066390531
 H        -1.3499652692        6.1926067139       -7.2813596319
 H        -0.8822220895        6.8546595700       -8.9018883552
 H        -1.5003184824        5.1558460294       -8.6328861905
 H        -3.8050951274        8.8109893448       -8.2800816334
 H        -2.7356274380        8.6790913105       -9.5856789586
 H        -2.0736332691        8.6692460792       -7.9056141492
 H        -6.5558613578        5.1282981956      -14.0542640698
 H        -7.6613293328        6.0383626963      -13.0381120921
 H        -8.3173324228        4.6558055480      -13.6603130634
 H        -8.8367900210        5.2803624921      -11.0379142449
 H        -7.9301155466        3.8603013222      -10.1183684615
 H        -9.0050449984        3.6176381406      -11.4329647343
 Na       -5.3500347491        3.2937672200       -9.0185337362
 Na        2.7192040275       -6.6626691284      -11.0145123577
