232

 C        -6.5526103486        2.1240031733      -13.2850144405
 C        -6.4218192461        2.9252396544      -11.9944445527
 O        -5.9274361491        2.3966483052      -11.0921595889
 C        -7.0546825178        4.3869064635      -11.8153166263
 C        -6.0113519556        5.3571165748      -11.1704594755
 O        -6.1552485804        5.6394212541      -10.0130356318
 C        -4.9275312186        6.0269293787      -12.0167250568
 C        -4.1733428249        6.9335365363      -11.0552843406
 C        -3.5586183923        6.1333976357       -9.8451207613
 O        -3.7035586397        4.9000752080       -9.8019182950
 C        -2.8503029236        6.7856225785       -8.6673616806
 C        -3.7301030087        6.2903511592       -7.3287268141
 O        -3.1817063438        5.6108447991       -6.4652973663
 C        -5.2067507615        6.7749334531       -7.0746055171
 C        -6.1989507507        5.9962971278       -6.1302852075
 C        -7.3494656832        5.2957784156       -6.8121227763
 O        -7.2090538406        4.3106185782       -7.5291265714
 C        -8.7598012445        5.5998952587       -6.2644188042
 C        -8.8994301132        4.7649083982       -4.9333982479
 O        -7.9274514571        4.4144399116       -4.3084146274
 C       -10.3478053868        4.4022756763       -4.4790929291
 C       -10.4507731868        3.0100680805       -3.7597500141
 C       -10.0062703840        1.8508057214       -4.6569788743
 O       -10.0273227862        1.9482863780       -5.8707570063
 C        -9.4299110925        0.4820661628       -4.0514094935
 C        -8.0329296515        0.1566712376       -4.8395249848
 O        -6.9744959163        0.5038683807       -4.3742786091
 C        -8.2121932670       -0.4942446590       -6.3276555766
 C        -6.8198563182       -0.6138851145       -7.1121634926
 C        -6.1017668076        0.7192647392       -7.3404192745
 O        -6.6124329682        1.6240293934       -7.8945950267
 C        -4.6344869781        0.7869869893       -6.9270485194
 C        -3.7425145820        0.8015639345       -8.2418520509
 O        -3.4021120477        1.8622856612       -8.6657768691
 C        -3.3150052976       -0.5044655154       -8.9870814417
 C        -1.8271423391       -0.6218748506       -9.2313059039
 C        -1.1099217984       -1.1702313294       -7.9542060226
 O        -1.7733082685       -1.6992344201       -7.0727623583
 C         0.4473159606       -1.2324759041       -7.9095500245
 C         0.9007342884       -2.7064606140       -8.4118246505
 O         1.6139796443       -2.8579481360       -9.3896344815
 C         0.4744107637       -3.9472742612       -7.5977547658
 C         1.6686420327       -4.8488897258       -6.9882522475
 C         2.5961531057       -5.1304602659       -8.3474935106
 O         1.9160350776       -5.5965808294       -9.2569630257
 C         4.2889237881       -5.0468263126       -8.3173951314
 C         4.7735377531       -6.5564830133       -8.5606992562
 O         4.5043288548       -7.0121319620       -9.6378283699
 C         5.6833999409       -7.3751235806       -7.5939595481
 C         5.4117501225       -8.8490984820       -7.4381031525
 C         4.1139164121       -9.2039472781       -6.4744101147
 O         3.7295695882       -8.3798357019       -5.6965172373
 C         3.6363256819      -10.7097848806       -6.5504170691
 C         3.2332572168      -11.1102597181       -7.9611219985
 O         4.0404081021      -11.5063433050       -8.7655971241
 C         1.6901115631      -10.9523935028       -8.3134287742
 C         1.3409515058      -11.0967633870       -9.8479035819
 C         1.7366422407       -9.8594606041      -10.6378282492
 O         2.0603684995       -8.7860206288      -10.1351371924
 C         1.6309594552      -10.0240641167      -12.1307122043
 C         1.3596137063       -8.6009048105      -12.6806091634
 O         2.2866021686       -7.8342259255      -12.9876637208
 C        -0.1227941215       -8.0670188845      -12.8225688619
 C        -0.3848152386       -6.8118405078      -13.6374775623
 C         0.3767577676       -5.5583156663      -12.9256775024
 O         0.7683381230       -5.4977579321      -11.7675904356
 C         0.2783321336       -4.2941963590      -13.8086013727
 C        -1.1575487439       -3.5965006143      -13.6462450769
 O        -1.3772624747       -3.0176043993      -12.5825408872
 C        -2.0390212320       -3.7409245133      -14.9292786537
 C        -3.3300164322       -2.8344197775      -14.9286562778
 C        -4.7145773804       -3.5238046306      -15.1705940356
 O        -4.8327356929       -4.7559684305      -15.2299370562
 C        -5.8892754112       -2.5907143375      -15.5820971846
 C        -5.7434842996       -2.2272481725      -17.0728348417
 O        -4.8954189543       -1.5004190412      -17.4808527406
 C        -6.6821241784       -2.9602152635      -18.1639835934
 C        -7.3915059979       -1.8598434937      -18.9042171620
 C        -8.7812130300       -1.4105876246      -18.2553529588
 O        -9.4091548837       -2.2387211323      -17.6230732875
 C        -9.4663955379        0.0584182798      -18.5951509076
 C        -8.8936788752        1.0991697930      -17.5236169757
 O        -8.8750846621        0.8659175515      -16.3468819068
 C        -8.1769284239        2.4440517404      -17.9997213709
 C        -9.2008045421        0.5277898851      -19.9998750187
 C       -11.0076524351       -0.3189813721      -18.4636001401
 C        -7.1941758353       -3.3123560387      -15.2948872022
 C        -5.8464057616       -1.3186738436      -14.6579295115
 C         1.3381374110       -3.3005928055      -13.1532321751
 C         0.7893911770       -4.5378490962      -15.3026913196
 C         3.0377207730      -10.4969078895      -12.6792078693
 C         0.5721970566      -11.0601211613      -12.5288841651
 C         4.6448880400      -11.6692329819       -5.9601277191
 C         2.3893581659      -10.7128714677       -5.5996315048
 C         4.8492914160       -4.1161120238       -9.3917310288
 C         4.9141077934       -4.4841784428       -7.0023171906
 C         1.0894608380       -0.2572262025       -8.9715090491
 C         1.1291374689       -1.0834521306       -6.4789450299
 C        -4.3916866262        2.0942109250       -6.1080770772
 C        -4.2219247470       -0.3751651992       -6.0287036778
 C        -8.9859938700        0.7986034384       -2.5534095760
 C       -10.3285398486       -0.7471446581       -4.2961453134
 C        -9.0348913813        7.0838551949       -5.9369972553
 C        -9.8176250648        5.0885327783       -7.2914345333
 C        -1.5114735617        6.0024731709       -8.3491080068
 C        -2.8685752016        8.3413630381       -8.6216745590
 C        -7.3457344079        4.9926794964      -13.2906273417
 C        -8.4164247382        4.4193678641      -10.9955541337
 H        -7.5123981447        2.2463411952      -13.7213276765
 H        -6.4184428706        1.0636226869      -13.0650329100
 H        -5.8644771226        2.4723730947      -14.0312394192
 H        -5.3404924480        6.6974642475      -12.7387430396
 H        -4.1933897458        5.3583017627      -12.5177759311
 H        -4.7516343079        7.7744449060      -10.7676239586
 H        -3.4903303928        7.4858596162      -11.5980298698
 H        -5.5821673029        6.8957243792       -8.1112169534
 H        -5.0601373961        7.7708205257       -6.7046081039
 H        -6.4538636106        6.6086942986       -5.2218843978
 H        -5.6095147499        5.1637317709       -5.5437326482
 H       -11.0995234648        4.3628932215       -5.2322868367
 H       -10.5251014073        5.2474118429       -3.7520962500
 H       -11.4841658493        2.8436971842       -3.4469432554
 H        -9.9181848788        3.2309260553       -2.8071071477
 H        -8.9721894345        0.1262835581       -6.8416365383
 H        -8.7242856083       -1.4692240519       -6.1170069904
 H        -7.2130506881       -0.9662216965       -8.0760467555
 H        -6.2859176189       -1.3907572535       -6.6699456149
 H        -3.9341879496       -0.4949138424       -9.8859560520
 H        -3.7129348630       -1.3662001899       -8.3486063744
 H        -1.3705391660        0.3343371171       -9.5656736238
 H        -1.6002024871       -1.3467903364      -10.0218240067
 H        -0.1262500728       -4.5655532758       -8.1820529697
 H        -0.1594636550       -3.6253815943       -6.7049900777
 H         1.2065992050       -5.7583626719       -6.6252907840
 H         2.2204887330       -4.4416142073       -6.1290895816
 H         5.6040616267       -6.9311528790       -6.5950423783
 H         6.7082467986       -7.2115631583       -7.8672784479
 H         6.1300237482       -9.5834767994       -7.0119106338
 H         5.2375404012       -9.2984386628       -8.4332438610
 H         1.4581135521       -9.9904633335       -8.0208558085
 H         1.2465865280      -11.5614588349       -7.4860315648
 H         0.3549041123      -11.3993547601       -9.7681765590
 H         1.8786160598      -11.9519032108      -10.4001965060
 H        -0.5796448425       -7.9468333977      -11.7913837730
 H        -0.7918286047       -8.9163747269      -13.1379895778
 H        -1.3358251243       -6.4737421341      -13.5870614128
 H         0.0345931720       -6.8250027600      -14.6452128185
 H        -2.2791944625       -4.8226370362      -15.3063731912
 H        -1.4073523924       -3.2837324382      -15.6768890266
 H        -3.2678367260       -1.9057419200      -15.5384879066
 H        -3.3817422655       -2.4522565212      -13.9343131762
 H        -7.4088365765       -3.6603773922      -17.7709870362
 H        -5.9839347737       -3.3635649912      -18.9187941183
 H        -7.7439693816       -2.2014247531      -19.9644755362
 H        -6.6923084951       -1.0032391556      -19.1591987680
 H        -7.3245108050        2.4012604507      -18.6665783253
 H        -7.8102789201        2.9118048630      -17.0988256795
 H        -8.8787718200        3.1175046891      -18.5093418734
 H        -8.1390549737        0.6429264263      -20.1550261088
 H        -9.8172557064        1.3753475838      -20.2913714870
 H        -9.5552807946       -0.3683117609      -20.5818564458
 H       -11.0939811706       -1.0470962445      -17.6245369251
 H       -11.4261342293       -0.8968087184      -19.3299190306
 H       -11.5876150860        0.5617682888      -18.3289350702
 H        -8.0311072624       -2.6848452115      -15.5401065472
 H        -7.3470787447       -3.4724560950      -14.2998938966
 H        -7.4487124694       -4.2365198254      -15.8833777984
 H        -5.3508106410       -0.4607879134      -15.0616185939
 H        -5.2376264856       -1.5792870217      -13.7844003772
 H        -6.7988395866       -1.0148083774      -14.3591640614
 H         1.6012954780       -2.5786481803      -13.9140498943
 H         2.1121908752       -3.9943258731      -12.8872090203
 H         0.8916532031       -2.8784788004      -12.2634118590
 H         0.8945576069       -3.6055504786      -15.8692516326
 H         0.1051795593       -5.1503263236      -15.8217511733
 H         1.7524757747       -4.9628087290      -15.3034448222
 H         2.7922128051      -10.9130726429      -13.7024240591
 H         3.4252578767      -11.3725979112      -12.0751145368
 H         3.7193391626       -9.6580096210      -12.7477654702
 H         0.3975159162      -11.0586503780      -13.6043951488
 H        -0.2873519172      -10.9051988820      -11.9279182093
 H         0.9787303308      -11.9445697458      -12.0700526559
 H         4.8142334756      -11.5175826917       -4.9398240669
 H         5.6157938577      -11.3863845295       -6.2677239053
 H         4.3969238119      -12.7190565479       -6.1628312777
 H         2.8007827891      -10.3387780124       -4.6633153203
 H         1.9719849369      -11.6497312029       -5.4821709456
 H         1.5833857721      -10.0994524256       -5.9240256339
 H         5.9314716193       -4.2987191237       -9.3686043867
 H         4.7830102715       -3.0498038677       -9.1908331131
 H         4.5430502612       -4.2835744353      -10.4462736227
 H         4.6295877867       -5.1846646187       -6.0709721552
 H         4.8247849248       -3.4024165331       -6.9199787414
 H         5.9582140933       -4.6316446446       -7.0710805478
 H         1.0001444833       -0.6948051459       -9.9790961046
 H         2.0938593733       -0.1192569650       -8.6825678934
 H         0.6684354380        0.7224420389       -8.8989447989
 H         0.5905449787       -0.3863670416       -5.7475643475
 H         2.0480185549       -0.6342050132       -6.5418008073
 H         1.4175118767       -2.0354610016       -6.0830373285
 H        -5.1805112005        2.0779567605       -5.3223546937
 H        -4.5777755982        2.9825094781       -6.7111020335
 H        -3.4019962852        2.1439498520       -5.6470769399
 H        -4.7610926969       -0.2831804993       -5.0868613441
 H        -3.2464125571       -0.4741099766       -5.6496340687
 H        -4.5375614919       -1.3722926093       -6.3678377089
 H        -9.8351219211        0.8333840515       -1.8472388059
 H        -8.5208624537        1.7698269690       -2.3703295613
 H        -8.2577590506        0.0400877451       -2.1368588585
 H       -11.3572819298       -0.6191285461       -3.8677253609
 H        -9.9783098784       -1.5978937383       -3.7511871989
 H       -10.4002753929       -0.9995130906       -5.3852031994
 H        -9.5597875546        7.6192900288       -6.7547902920
 H        -8.0937837726        7.7546779468       -5.8683826429
 H        -9.6894130900        7.1079142980       -5.0619784637
 H        -9.7936886040        3.9910869710       -7.2169741317
 H        -9.4946734173        5.5662094202       -8.2797125146
 H       -10.8437423537        5.4146122734       -7.1423831360
 H        -1.1064026844        6.4162291574       -7.4256142254
 H        -0.7081382574        6.0401130970       -9.1849341240
 H        -1.7843997224        4.9552028107       -8.0329789299
 H        -3.8177188772        8.7929518189       -8.4010416372
 H        -2.6003692326        8.9132091494       -9.5694438172
 H        -2.0637109453        8.5662608866       -7.8922626163
 H        -6.4478436306        5.0433446194      -13.8782497988
 H        -7.7591370410        5.9844030367      -13.2799182809
 H        -8.1532572259        4.4100604638      -13.6961663277
 H        -8.5866182026        5.4131254566      -10.5438846387
 H        -8.4453150113        3.6261784900      -10.2678515143
 H        -9.2666412510        4.2555273678      -11.6110060363
 Na       -5.3851923534        3.4302701814       -8.9023168715
 Na        2.6234068163       -6.6520344718      -11.1503109007
