232

 C        -6.8658186918        2.3065215197      -13.3290989088
 C        -6.6867572820        3.2505624556      -12.1280605987
 O        -5.8711408504        2.8660546779      -11.2217352822
 C        -7.4129969895        4.5995129421      -11.9599540569
 C        -6.3642607294        5.5998349562      -11.2189451381
 O        -6.7384836048        6.2891263140      -10.3166638110
 C        -4.9145149254        5.5959521390      -11.7787672516
 C        -3.8293702030        6.3649223285      -10.9666373574
 C        -3.4490520507        5.6268990156       -9.6794476526
 O        -3.5965387813        4.4117964064       -9.6958710021
 C        -2.7675038794        6.4877843061       -8.4728061745
 C        -3.4652005209        5.9840973748       -7.1531752634
 O        -2.9302460377        5.3757396518       -6.2756287137
 C        -4.9762142272        6.3578783665       -7.2237065384
 C        -5.8386091393        5.7400442065       -6.1748058914
 C        -7.1464079852        5.2564632319       -6.8220024865
 O        -7.1263899486        4.5367572924       -7.8506672942
 C        -8.5649726200        5.8206989158       -6.3292397620
 C        -8.9224311638        4.9476380526       -4.9040340707
 O        -8.0111238912        4.8373041445       -4.1205732570
 C       -10.3064850597        4.5748494877       -4.5120428602
 C       -10.2432979711        3.1738903242       -3.7947742936
 C       -10.0570341441        2.0928320809       -4.8386020499
 O       -10.1834603215        2.3293016266       -6.0375141294
 C        -9.3403190043        0.7327417426       -4.3402453977
 C        -8.1814424113        0.3957252411       -5.3291841144
 O        -7.0481985175        0.5837293064       -4.9404996310
 C        -8.3150649451       -0.2043987695       -6.7568239153
 C        -6.9278373707       -0.6125078704       -7.2056589642
 C        -6.1006380987        0.6149172691       -7.1652695708
 O        -6.4656007302        1.6393230185       -7.7736596958
 C        -4.6342080084        0.6666366477       -6.6203828379
 C        -3.8695452969        0.5766027363       -7.9823907901
 O        -3.7537221422        1.5915340044       -8.6662647084
 C        -3.3438406267       -0.7718183674       -8.5443094417
 C        -1.9435820649       -0.4948060898       -9.0666278019
 C        -0.9056946946       -0.7664242379       -7.8845131481
 O        -1.3440048593       -1.2170981635       -6.8717995999
 C         0.6474397993       -0.9905392044       -8.2324271431
 C         0.8241764976       -2.3835073621       -8.6792194932
 O         1.4765485628       -2.6219762873       -9.6622171764
 C         0.4337645252       -3.5831465549       -7.7635894997
 C         1.6363953298       -4.3248924537       -7.2109072804
 C         2.4006647099       -5.2258884762       -8.2215844195
 O         1.9204984881       -6.0865879015       -8.9157272938
 C         4.0306774548       -5.0789866891       -8.3734123670
 C         4.6117844050       -6.4303522385       -8.7917040797
 O         4.5118162521       -6.8590001974       -9.9392549175
 C         5.3081252477       -7.2501167346       -7.6627527155
 C         5.0423633077       -8.7251110964       -7.6635896758
 C         4.0824681854       -9.1748842162       -6.5836051201
 O         3.6481620899       -8.4200179041       -5.7142238606
 C         3.7891166452      -10.7478867939       -6.5293564839
 C         3.0237109941      -11.1143276905       -7.8856158929
 O         3.6492271046      -11.4342602383       -8.8783958771
 C         1.4526528990      -10.9716436473       -8.0677853663
 C         0.9388003619      -11.0623314778       -9.4641882169
 C         1.5430587494       -9.9398124494      -10.3954070811
 O         2.0037242319       -8.9540742597       -9.8868781878
 C         1.6093529337      -10.1417981184      -12.0041201992
 C         1.2651709998       -8.7634925074      -12.7592715932
 O         2.2285649517       -8.1335764234      -13.1045525343
 C        -0.1661640253       -8.2159805687      -12.7717119286
 C        -0.2599096566       -6.8492807324      -13.5741985677
 C         0.3874632904       -5.6511424327      -12.9163709468
 O         0.9941357714       -5.7598206092      -11.8743823456
 C         0.5388797294       -4.3486471792      -13.7244052789
 C        -0.9289866794       -3.6019088089      -13.7342051666
 O        -1.0869009299       -2.6934572872      -12.9834057391
 C        -2.0676139706       -4.0037669938      -14.5604153218
 C        -3.1642974113       -2.9021466555      -14.6970032075
 C        -4.5563944719       -3.4984620560      -15.2018189145
 O        -4.6911088052       -4.5984171510      -15.6398251664
 C        -5.7265303640       -2.4604387472      -15.2915098716
 C        -5.7487609738       -2.2309673776      -16.8919508349
 O        -4.8575082675       -1.6234858802      -17.4783862678
 C        -6.8112883326       -2.9796426184      -17.7202552011
 C        -7.6649488334       -1.9845540474      -18.5842966706
 C        -8.9051461813       -1.5093794906      -17.8399306218
 O        -9.3291957324       -2.1039101438      -16.8573958284
 C        -9.5986281540       -0.2461356407      -18.3414871441
 C        -8.7757883570        1.0536129780      -17.6386437638
 O        -8.3562729961        0.8605313169      -16.4985912201
 C        -8.4255782910        2.3124946400      -18.4267419718
 C        -9.4316397490       -0.2336363366      -19.9092530225
 C       -11.0541335116       -0.3960585335      -18.0373126503
 C        -7.0510339856       -3.1200623937      -14.8694958968
 C        -5.5466009728       -1.0330881792      -14.7413052696
 C         1.6558817728       -3.3367658854      -13.2564662544
 C         0.9765169573       -4.7301318344      -15.2229014080
 C         2.9742084076      -10.6030211318      -12.3842064785
 C         0.4347428192      -11.1210557415      -12.3325078314
 C         5.1769238750      -11.4670795350       -6.5783586569
 C         3.0667462724      -11.1416706139       -5.3052904744
 C         4.2587594906       -4.2160719782       -9.6122214755
 C         4.6033982154       -4.5629389136       -7.0301159047
 C         1.1180582155        0.0619583544       -9.3480084054
 C         1.6075117099       -0.7738112855       -6.9746759206
 C        -4.3054614159        2.0284221506       -5.8405792864
 C        -4.2888044274       -0.4778228562       -5.7083582812
 C        -8.8575491141        0.6376147230       -2.9108297274
 C       -10.4425682214       -0.4386686918       -4.3814410323
 C        -8.6541209336        7.2813386811       -5.9599875895
 C        -9.6634157440        5.3428020781       -7.3385485097
 C        -1.2747717134        6.0177579367       -8.3824775342
 C        -2.7296542525        8.0150942409       -8.7244019135
 C        -7.7934777840        5.2060242621      -13.2746774886
 C        -8.6480892631        4.4103403312      -11.0966212185
 H        -7.6146643532        1.5620889328      -13.0824651924
 H        -5.9700045821        1.7557617982      -13.4792570805
 H        -7.2789683614        2.8189343187      -14.1963166953
 H        -4.8908258146        5.8687302857      -12.8372697009
 H        -4.6197667624        4.5800105294      -11.5498532297
 H        -4.2068140718        7.3728628123      -10.7793731755
 H        -2.9736095266        6.5524036127      -11.5798199979
 H        -5.3635091301        6.2464138409       -8.2296847423
 H        -4.9100439313        7.4459056235       -7.1514178212
 H        -6.0528677934        6.5149434157       -5.3740971331
 H        -5.3711244933        4.8119396493       -5.6467558206
 H       -10.9625402301        4.3323666926       -5.4195296880
 H       -10.7717468189        5.3398240794       -3.9140486490
 H       -11.1983540160        3.0797971662       -3.2627084327
 H        -9.5571886202        3.3064886610       -2.9800007322
 H        -8.8442654468        0.4986883772       -7.4447352688
 H        -9.0538815905       -0.9721114572       -6.6250402641
 H        -7.1408130725       -0.9384441421       -8.1776932910
 H        -6.5851383149       -1.4562617863       -6.6185960469
 H        -4.0419961242       -1.1105146785       -9.3853557153
 H        -3.3894024727       -1.4664288910       -7.7810549917
 H        -1.8845737629        0.5112829067       -9.5516833779
 H        -1.6823091241       -1.2392572635       -9.8252547484
 H        -0.2214933254       -4.3282291755       -8.2213365279
 H        -0.0769464818       -3.2756051163       -6.9195087824
 H         1.2290378039       -5.0498298249       -6.4806021274
 H         2.3381314458       -3.6655684371       -6.6617516035
 H         4.8135816728       -6.9529111189       -6.7354421036
 H         6.3631294884       -7.0815770192       -7.4958440368
 H         6.0125688895       -9.2241598761       -7.5223202972
 H         4.7467647417       -8.9869517474       -8.7442940300
 H         1.0787351185      -10.0604649533       -7.5545228035
 H         1.0364134577      -11.7159172568       -7.4032949618
 H        -0.1687666533      -10.8883537785       -9.3321660140
 H         1.0656803579      -12.0737386035       -9.8672182655
 H        -0.6115700388       -8.2348758777      -11.7431512606
 H        -0.9655597766       -8.8710623943      -13.2743332340
 H        -1.3038060773       -6.6172690351      -13.8281581905
 H         0.2573867974       -7.0049492714      -14.4410191991
 H        -2.5883988250       -4.8854458134      -14.0395800568
 H        -1.8968088098       -4.5220160655      -15.5232218633
 H        -2.8912926362       -2.0258050755      -15.3258417376
 H        -3.3125308100       -2.4876167499      -13.7353316048
 H        -7.6654633075       -3.3166061193      -17.0869941802
 H        -6.3807466716       -3.7951922486      -18.3159676250
 H        -8.0474399770       -2.4435643604      -19.5504599853
 H        -7.1463054880       -0.9977971384      -18.9663825560
 H        -7.8438530008        1.9697819050      -19.2731435258
 H        -7.7691377479        2.9976304990      -17.8449697979
 H        -9.2139118189        2.9149941857      -18.8913675575
 H        -8.3599263218        0.0010340041      -20.1798534589
 H       -10.0844133865        0.5619068561      -20.3249565710
 H        -9.7116990947       -1.2055253433      -20.3267706276
 H       -11.2962864229       -0.5991030354      -16.9744007993
 H       -11.5454566324       -1.2012438989      -18.6148609055
 H       -11.5477035023        0.5557591808      -18.3419441588
 H        -7.9056974170       -2.5678241914      -15.2106476142
 H        -7.2083478038       -3.3435954010      -13.7747060601
 H        -7.2035080769       -4.0373353483      -15.3218949016
 H        -4.7550350038       -0.4992674817      -15.2618967168
 H        -5.2177100802       -1.0673466097      -13.6881786980
 H        -6.4842255758       -0.4526909615      -14.8253199931
 H         1.5765693429       -2.4539448702      -13.8738513003
 H         2.6020581904       -3.8611347987      -13.4570998249
 H         1.4576215987       -3.2404738185      -12.1862974315
 H         1.1374836661       -3.8680984019      -15.7769003144
 H         0.2328561926       -5.3332829201      -15.7883896937
 H         1.8417724007       -5.3427843357      -15.1426453884
 H         2.9884959546      -10.5241119732      -13.4847981948
 H         3.2268833186      -11.5506612199      -11.9422713320
 H         3.6711475950       -9.7525611538      -12.0607842840
 H         0.4579982149      -11.3300447745      -13.4026561265
 H        -0.5377278574      -10.6099938314      -12.1056063437
 H         0.5434138550      -12.0760532097      -11.8178164613
 H         5.9560868211      -10.8930010719       -6.0272579790
 H         5.4921005678      -11.7048726774       -7.6050206295
 H         5.1524610658      -12.4150567738       -6.1130289807
 H         3.5946811312      -10.9678399538       -4.4196043223
 H         2.9256265910      -12.2226899334       -5.4570808834
 H         2.1293040438      -10.6358193496       -5.2739867552
 H         5.2339574810       -3.7438604657       -9.6175175271
 H         3.4560845901       -3.4873253792       -9.7286825085
 H         4.3166596808       -4.7324710798      -10.5617177763
 H         4.2131931728       -5.0727762718       -6.1936459102
 H         4.1776683302       -3.5302274934       -6.9128493468
 H         5.7486290249       -4.4964922681       -6.8896462591
 H         0.7783072173       -0.2176261158      -10.2866230998
 H         2.1999079040        0.0566441693       -9.4153068129
 H         0.8505761215        1.0835361909       -9.0357551213
 H         1.9711908396        0.1697276463       -6.9286382144
 H         2.4743737704       -1.5070855054       -7.0880566646
 H         1.1287025416       -0.8580098305       -6.0417542179
 H        -4.8817571854        1.9136112074       -4.9264341190
 H        -4.6473271195        2.9741211863       -6.2875509454
 H        -3.2369529700        2.1888942559       -5.6549043531
 H        -4.5376610557       -0.2468298780       -4.6842597135
 H        -3.2185471383       -0.6708624831       -5.5475845922
 H        -4.7567260128       -1.4174239012       -5.9056472081
 H        -9.6813727591        0.5622613890       -2.1675293784
 H        -8.2658735992        1.5265768251       -2.6097319126
 H        -8.2258798101       -0.2020086036       -2.7838387835
 H       -11.2095681602       -0.3897237537       -3.5940059749
 H        -9.8185214854       -1.3470086455       -4.1458276323
 H       -10.8448501157       -0.5854374129       -5.3740236922
 H        -8.3007733662        8.0520721104       -6.6724417768
 H        -8.2027243842        7.3315096913       -4.9486058617
 H        -9.7848157944        7.4268128828       -5.7949445957
 H        -9.7466160954        4.2290149245       -7.3231209604
 H        -9.3320024849        5.5132225039       -8.3851317561
 H       -10.6150772569        5.8683882498       -7.0918954364
 H        -0.7789480193        6.2082185261       -7.3521576027
 H        -0.6906847630        6.5595377656       -9.1253709884
 H        -1.2536280693        4.9432103588       -8.6886665741
 H        -3.8149750827        8.4109679692       -8.7261064351
 H        -2.3428126314        8.2236975477       -9.6857048348
 H        -2.1111690383        8.6779004115       -8.0849974219
 H        -6.9485342230        5.5771650464      -13.8482497011
 H        -8.4236031162        6.0831665680      -13.0935335154
 H        -8.3692739627        4.5037544311      -13.8800704792
 H        -8.3691168670        4.5913138907      -10.0853632829
 H        -9.1640101431        3.4683765377      -11.0524378977
 H        -9.3953562342        5.1912087982      -11.4086516530
 Na       -5.4650145679        3.2589381322       -9.0403456002
 Na        2.5491392218       -7.1179672625      -10.8761170265
