232

 C        -7.1571814040        2.3853478948      -13.4327920332
 C        -6.8551160168        3.1402819103      -12.1080389382
 O        -6.2255427627        2.6973737579      -11.1548726886
 C        -7.3752881320        4.6469314585      -11.9860313820
 C        -6.2359364515        5.6128338782      -11.4261084458
 O        -6.6362798169        6.5986546659      -10.8372660517
 C        -4.7360140494        5.5946497742      -11.8098827505
 C        -4.0111326854        6.4315600796      -10.7947195155
 C        -3.4896759145        5.6427760939       -9.6019895627
 O        -3.4812451708        4.3815065840       -9.5884620396
 C        -2.7443754021        6.4214743501       -8.4829881632
 C        -3.5088041759        5.9946337441       -7.1603663018
 O        -2.9864887861        5.2682200628       -6.3893380795
 C        -4.9646582207        6.4346386212       -7.2206303395
 C        -5.8396143022        5.6356641367       -6.3041096618
 C        -7.2157852247        5.2495722282       -6.9665618120
 O        -7.2451286345        4.2542786270       -7.7922668127
 C        -8.4771576275        5.9295763600       -6.3849255246
 C        -8.7411777294        5.1419035353       -4.9520598318
 O        -7.7809269123        4.9565559454       -4.2338608133
 C       -10.1612063627        4.6358755005       -4.5031015995
 C       -10.0661499311        3.2559148249       -3.8838427439
 C        -9.9277526257        2.1344630945       -4.8060770316
 O       -10.2297497580        2.2485952617       -5.9830007595
 C        -9.4707748453        0.7078094309       -4.3374030580
 C        -8.2523019821        0.4673140237       -5.2624195123
 O        -7.1790387369        0.9302917784       -4.9989743878
 C        -8.3787742605       -0.3168156052       -6.6119097036
 C        -7.0695877328       -0.6692857825       -7.2223466932
 C        -6.2207320744        0.5700446567       -7.2661536947
 O        -6.6072635477        1.6468562072       -7.6868763399
 C        -4.7606528040        0.5002555405       -6.7648056177
 C        -3.8562515274        0.4934891692       -8.0255053880
 O        -3.8749195877        1.4403561460       -8.8347030434
 C        -3.1729825822       -0.8594431879       -8.5007575679
 C        -1.7539543245       -0.5594632117       -8.9616524972
 C        -0.7165219401       -0.7594158117       -7.8704473352
 O        -0.9925049383       -0.8647612293       -6.7189783601
 C         0.7887623314       -0.8111846291       -8.3060541595
 C         0.9963187333       -2.3567513812       -8.8632294018
 O         1.3097889977       -2.5285805821      -10.0229118330
 C         0.5822164392       -3.5377808976       -7.9191252148
 C         1.6470042382       -4.2321218715       -7.1475056624
 C         2.3823047817       -5.1730673115       -8.0610759247
 O         1.7073155007       -5.9284765815       -8.7099321806
 C         4.0011172410       -4.9701912371       -8.3913898407
 C         4.5978383586       -6.3715649249       -8.7087549810
 O         4.4815030607       -6.8632938352       -9.7971302794
 C         5.2908359999       -7.1368836990       -7.6079466083
 C         5.1284097177       -8.7183707866       -7.7680068185
 C         4.1017182960       -9.3010177979       -6.7843684237
 O         3.3407193325       -8.6617912169       -6.0442774688
 C         3.9420933265      -10.9277551708       -6.7526236980
 C         3.0143162527      -11.1719259942       -8.0997750485
 O         3.5937218489      -11.3404665902       -9.1532189115
 C         1.5028272358      -10.9438517992       -7.9654328827
 C         0.8428184797      -11.1722626123       -9.3573875886
 C         1.3815254528      -10.0727466424      -10.2652037367
 O         1.6916355539       -9.0207444870       -9.7199640198
 C         1.3326823168      -10.3281786275      -11.7892547776
 C         1.2827865366       -8.9348310689      -12.4394257619
 O         2.2868129375       -8.3312006705      -12.7593123212
 C        -0.1487266202       -8.2618643724      -12.6867927728
 C        -0.2014649521       -7.0911482245      -13.6143842119
 C         0.6117648415       -5.7824547728      -13.0458143256
 O         1.0720647699       -5.7813867439      -11.9273714134
 C         0.5867865929       -4.4515531907      -13.9204362305
 C        -0.7295343035       -3.5771682004      -13.7115804241
 O        -0.6991564697       -2.7676229652      -12.8566872314
 C        -2.0489512389       -4.0707283227      -14.3333147159
 C        -3.0318066964       -2.9561537182      -14.7164163952
 C        -4.4177552930       -3.4875868249      -15.0320601477
 O        -4.5351358654       -4.6741269256      -15.1825363037
 C        -5.6119952216       -2.4939107132      -15.2719299845
 C        -5.8491909771       -2.2948067343      -16.8448804558
 O        -5.2556189230       -1.3707203685      -17.3771790528
 C        -6.6862079810       -3.2561590115      -17.7027429939
 C        -7.7650772382       -2.3254023666      -18.5859871054
 C        -8.8730096360       -1.5992542080      -17.7577832189
 O        -9.0744627362       -1.9852512940      -16.6087347989
 C        -9.5811543532       -0.2854299175      -18.3834933948
 C        -8.7368116083        0.9284536853      -17.8974828848
 O        -8.2411312599        0.8975365469      -16.7859595647
 C        -8.7188352842        2.2315615774      -18.5858573116
 C        -9.9914200741       -0.3406208232      -19.8633691138
 C       -10.8676548729        0.0009648422      -17.5853986747
 C        -6.7924637299       -3.1952726172      -14.6147801788
 C        -5.2569569064       -1.1280798389      -14.7170446520
 C         1.7452683159       -3.5459653746      -13.2655658174
 C         0.8457492533       -4.5734366027      -15.4576791366
 C         2.8288569246      -10.8763221466      -11.9536914453
 C         0.2401351391      -11.2596922459      -12.2281910673
 C         5.2162515272      -11.6974622336       -6.7323359537
 C         3.1428343032      -11.2663675445       -5.4775895534
 C         3.9892511683       -4.1088511537       -9.7174985876
 C         4.8249420628       -4.2076324398       -7.3131002533
 C         1.0446439146        0.0959744193       -9.5496773553
 C         1.8117998034       -0.3704512798       -7.1545683824
 C        -4.4343815180        1.8435104200       -5.9301402624
 C        -4.5420900604       -0.7347119403       -5.8681621252
 C        -8.9926700223        0.7300616940       -2.8384988212
 C       -10.6953949854       -0.1480880611       -4.5543420947
 C        -8.1637919926        7.5150131808       -6.1451036999
 C        -9.6342261149        5.7221611566       -7.3673407187
 C        -1.3124364966        5.8741714955       -8.3150421343
 C        -2.6384072517        7.9181164207       -8.4698317582
 C        -7.9142419959        5.5000978361      -13.2286283622
 C        -8.4822306563        4.4593687810      -10.9207212143
 H        -8.0779476637        1.7980594152      -13.3441393138
 H        -6.3370211809        1.6819102648      -13.7179395746
 H        -7.4099295116        3.0975058424      -14.2815463521
 H        -4.7786014106        6.1183100186      -12.7526971181
 H        -4.1966447540        4.6165536024      -11.7649086167
 H        -4.7719425551        7.2090755176      -10.4494491769
 H        -3.1896030133        6.9575337553      -11.1591374099
 H        -5.2531836205        6.2783424612       -8.2891489806
 H        -4.9800563030        7.5012259617       -7.1624155855
 H        -6.0584291504        6.2287293942       -5.4736527032
 H        -5.3455508344        4.7084654105       -6.0264549274
 H       -10.8731518027        4.4319353389       -5.3510839769
 H       -10.6160792471        5.3336042038       -3.8498357642
 H       -10.9033683545        3.0345288682       -3.2131573420
 H        -9.2189787725        3.3993517660       -3.1689087581
 H        -9.0319743444        0.2886743869       -7.2924482192
 H        -9.0900938570       -1.1108907823       -6.3433518287
 H        -7.3262689768       -1.0653692236       -8.2694310995
 H        -6.7221444603       -1.5474155441       -6.6733053010
 H        -3.8601345937       -1.1699862062       -9.3808905231
 H        -3.2069061591       -1.5822061327       -7.7636817067
 H        -1.6323849402        0.5189696376       -9.3134168888
 H        -1.4876150367       -1.2391702219       -9.7859855673
 H        -0.0775028572       -4.2695637716       -8.4576377272
 H        -0.0204592266       -3.1487533165       -7.0385204347
 H         1.1245153981       -4.6615956877       -6.3566069159
 H         2.3506410859       -3.4885286953       -6.7674619823
 H         5.0397745456       -6.8723273931       -6.5817888232
 H         6.3304141704       -6.8688543868       -7.7528582736
 H         6.1246967172       -9.1330646947       -7.5924275348
 H         5.0142161624       -8.7654277146       -8.8522126970
 H         1.2118804951      -10.1090572413       -7.3997028277
 H         1.1501309942      -11.8002344939       -7.2657857562
 H        -0.2069569294      -11.1475393535       -9.2026905304
 H         1.1307519022      -12.2085373620       -9.7253868001
 H        -0.7482514302       -7.9761400897      -11.8492985659
 H        -0.8627511847       -8.9122995821      -13.1434979960
 H        -1.2737372646       -6.7807078779      -13.7903944351
 H         0.1872965695       -7.3618785788      -14.5586448163
 H        -2.5295758393       -4.8383151439      -13.7346231321
 H        -1.8534425084       -4.5776079211      -15.1953726181
 H        -2.5977267442       -2.3296548947      -15.5549437371
 H        -3.0213235849       -2.2738592078      -13.8800176187
 H        -7.2354398925       -3.9455325545      -17.1070396175
 H        -6.0366508193       -3.7949422060      -18.3624016642
 H        -8.3808266552       -2.8895974790      -19.1861575750
 H        -7.1636625317       -1.6089018176      -19.2324327992
 H        -8.0943551690        2.2858061682      -19.4293161708
 H        -8.5509106150        3.1020502579      -17.9288222093
 H        -9.7078017806        2.4861760714      -18.9813077327
 H        -9.1062487195       -0.2879969214      -20.4649775647
 H       -10.5909944094        0.4662956697      -20.1558082493
 H       -10.4345098052       -1.3176145832      -19.9992786294
 H       -10.7535641304       -0.0434443878      -16.4862432269
 H       -11.6739393351       -0.6386758932      -17.9533613413
 H       -11.1967345008        0.9861993528      -17.7012842949
 H        -7.8260056782       -2.8094996137      -14.8079461645
 H        -6.7353771213       -3.1408535397      -13.4736162035
 H        -6.7902513131       -4.2595423945      -14.7168619390
 H        -4.3939449345       -0.7784803754      -15.2596801919
 H        -5.2452294172       -1.0144264856      -13.6022048645
 H        -6.0660472663       -0.4930781297      -15.0006219263
 H         1.9695987316       -2.8064785416      -13.9839489029
 H         2.6413759235       -4.1931800056      -13.2884839187
 H         1.3567213480       -3.2412457254      -12.2896475172
 H         0.8779512705       -3.5439558420      -15.7990943048
 H        -0.0924507773       -5.0615869576      -15.9379380482
 H         1.6483049499       -5.2161627521      -15.7792778635
 H         2.8531814952      -11.4471352961      -12.8793770284
 H         2.9905645351      -11.4648450013      -11.1365601537
 H         3.5239947345      -10.0227949195      -11.9206013941
 H        -0.0990696512      -11.2949337212      -13.2425689171
 H        -0.6345989206      -10.9283762724      -11.5816222105
 H         0.4839366800      -12.3183109363      -12.0630988170
 H         5.7065239017      -11.5668980985       -5.7297367614
 H         5.8202035659      -11.3864122723       -7.6226206156
 H         5.1191035309      -12.7691455490       -6.8462219439
 H         3.8015920963      -11.1101349803       -4.6093042722
 H         2.9118778662      -12.3526265842       -5.5082590723
 H         2.3102784758      -10.5553216855       -5.3231905349
 H         4.9552530815       -4.2995720274      -10.1819739581
 H         3.8839829499       -3.0394990662       -9.5700791144
 H         3.2889690986       -4.3682683792      -10.5276046913
 H         4.6861385612       -4.6299157063       -6.4257468724
 H         4.6171588712       -3.1738179125       -7.0685778583
 H         5.8905147484       -4.3318854539       -7.6608034735
 H         0.4982069766       -0.1906897724      -10.4112936164
 H         2.0882778198        0.1139944197       -9.8584293456
 H         0.7207758110        1.1422821012       -9.2097391735
 H         1.4790095222        0.5440125289       -6.6862940472
 H         2.9082227495       -0.1661842957       -7.5901833466
 H         1.7641313739       -1.0347889242       -6.2588424115
 H        -5.1839495042        2.1945613983       -5.2231487874
 H        -4.1713519122        2.6888536337       -6.5523058524
 H        -3.4880861225        1.5942972649       -5.4516928232
 H        -5.2769445413       -0.7276857585       -5.0452997648
 H        -3.6116447007       -0.7993938273       -5.3337920521
 H        -4.6050916934       -1.7502165071       -6.2845726448
 H        -9.7418947518        1.2745534296       -2.2081817393
 H        -8.0325952700        1.1267846040       -2.5628389867
 H        -9.0847477626       -0.2616318668       -2.5301331836
 H       -11.3620969311        0.0795971390       -3.7235419927
 H       -10.5172862106       -1.1756712775       -4.7610680968
 H       -11.1822764627        0.2790200342       -5.4099777239
 H        -7.3887120802        7.6511933987       -6.8263093938
 H        -7.9818197928        7.6940022529       -5.0881408965
 H        -8.9968249057        8.1577228628       -6.5079547746
 H        -9.5190994743        4.6740747744       -7.5617542501
 H        -9.4930344272        6.0665417868       -8.3976304078
 H       -10.5820373815        5.8633633658       -6.9382490132
 H        -0.9577331141        6.3591340662       -7.4290549055
 H        -0.6397242439        5.9995304319       -9.0685580012
 H        -1.4519801356        4.8427971480       -8.1614558612
 H        -3.5984638184        8.4500123671       -8.4820763606
 H        -1.9801549165        8.3302649292       -9.1556034079
 H        -2.3219883093        8.2799174472       -7.4967650832
 H        -7.3914535272        5.2136873181      -14.1408206502
 H        -7.7785317854        6.5779348135      -13.0252104523
 H        -8.9443728612        5.2828629958      -13.5135439795
 H        -8.5266609064        3.4053045958      -10.7214639869
 H        -9.4579542094        4.6558311606      -11.3680478333
 H        -8.4341928764        5.2233132599      -10.0515308649
 Na       -5.5324263667        3.2813337838       -8.9519250839
 Na        2.6010885694       -6.9111438915      -10.6946435362
