232

 C        -7.1999772577        2.4242431135      -13.3531497072
 C        -6.8687882741        3.2931397108      -12.1856789900
 O        -6.3932090030        2.6461505105      -11.1837944465
 C        -7.3589645078        4.6689699061      -12.0111002095
 C        -6.2514829984        5.6422576716      -11.4635555004
 O        -6.6157386239        6.6365843619      -10.9226574879
 C        -4.7647223687        5.5714261623      -11.8475451860
 C        -3.9250334817        6.4596514681      -10.8453833942
 C        -3.3755580194        5.7326068426       -9.6593323339
 O        -3.5912118914        4.5440360841       -9.5917810536
 C        -2.6209335276        6.3775917853       -8.3443126145
 C        -3.5306929239        5.9478024983       -7.2021488388
 O        -3.0506513010        5.2053207960       -6.3230855984
 C        -4.9932441477        6.4412797273       -7.1740403463
 C        -5.8101987370        5.5112496306       -6.3270012825
 C        -7.2165285484        5.2384308976       -6.9601391841
 O        -7.3099533539        4.4588458719       -7.8667078195
 C        -8.4124364058        5.8882558482       -6.4021933700
 C        -8.6758642626        5.2241573644       -4.9750419363
 O        -7.8017438628        5.0137391370       -4.2039869822
 C       -10.0282666952        4.7242461728       -4.6861477491
 C        -9.9463352267        3.4271291355       -3.8864406658
 C        -9.9085089009        2.2470417347       -4.8744231051
 O       -10.2982584878        2.3661007178       -6.0093056484
 C        -9.6051555843        0.7458757974       -4.3433117586
 C        -8.2906228406        0.3574711690       -5.1809755681
 O        -7.2298808544        0.9403863172       -4.9749950675
 C        -8.4973020765       -0.3924060145       -6.5394325208
 C        -7.1646072311       -0.6122073262       -7.1941409807
 C        -6.2820927051        0.6202839497       -7.2807586413
 O        -6.7038734816        1.6113704058       -7.8280447527
 C        -4.6611576359        0.4562071886       -6.7997999369
 C        -3.9002868032        0.4174455713       -8.1383583798
 O        -3.8606669064        1.3401093763       -8.9403207624
 C        -3.1326409928       -0.8557380264       -8.4731087640
 C        -1.7220755742       -0.6123498659       -9.0453951421
 C        -0.6221043445       -0.5982003541       -7.8729879149
 O        -1.0107844309       -0.7802001867       -6.7329575098
 C         0.8373869773       -0.6888523796       -8.3888196737
 C         0.9692951495       -2.1755762145       -8.8183492165
 O         1.2958793903       -2.5356675592       -9.9183022195
 C         0.4959331810       -3.4038740577       -7.8392541138
 C         1.7299794672       -4.0814008695       -7.0574823752
 C         2.4765873856       -4.9452439082       -8.0599120878
 O         1.9597863031       -5.8609203878       -8.6581298620
 C         4.0165732046       -4.8972967956       -8.4396920278
 C         4.4724984043       -6.3929364371       -8.6469177425
 O         4.5476059648       -6.7747174498       -9.8271304346
 C         5.1488576049       -7.2327112810       -7.5239740699
 C         5.2362759485       -8.7639333462       -7.6234473536
 C         4.2001468457       -9.3790844981       -6.8351650987
 O         3.3266328967       -8.6541655374       -6.3140340547
 C         3.9683093358      -10.9494470111       -6.7825072009
 C         3.0488904954      -11.1518520279       -8.0331780407
 O         3.5516412242      -11.3331585556       -9.1517019857
 C         1.5337602692      -11.1997548025       -7.8852471516
 C         0.8055872502      -11.2808100169       -9.2308476757
 C         1.2456477811      -10.0785126790      -10.2104438928
 O         1.5427976488       -8.9688706977       -9.8263339132
 C         1.2919596433      -10.4216950913      -11.7004891682
 C         1.2508487716       -8.9031791189      -12.4420985539
 O         2.2958196638       -8.3301915215      -12.6205922629
 C        -0.0576547340       -8.2170479160      -12.6250221356
 C        -0.1194058993       -7.1098416681      -13.7288415487
 C         0.5665467794       -5.7221570765      -13.1915867678
 O         0.9236249050       -5.7988817064      -11.9978708770
 C         0.6017741448       -4.4597237651      -13.9888676654
 C        -0.7730584973       -3.7181514496      -13.5106773973
 O        -0.7787967986       -2.6915914846      -12.8497387261
 C        -2.0041403492       -4.1350447655      -14.2846118075
 C        -2.8858212788       -2.9559095806      -14.6798710629
 C        -4.2635849927       -3.5325079226      -15.0467255287
 O        -4.4663975115       -4.7206793390      -15.0034991255
 C        -5.4876341930       -2.5515503779      -15.2940409283
 C        -5.8602817389       -2.2932297135      -16.8122626032
 O        -5.3926441143       -1.2773418240      -17.3068810017
 C        -6.7965765911       -3.1968751897      -17.5804291442
 C        -7.7343624539       -2.4442221766      -18.5564422742
 C        -8.7446045004       -1.5692584951      -17.7688400295
 O        -9.0984061292       -1.9160055123      -16.6604023673
 C        -9.5687786020       -0.2957393455      -18.2697080816
 C        -8.7127407679        1.0002164446      -17.9120305051
 O        -8.0864643706        0.8879486236      -16.8432045103
 C        -8.8232282458        2.3100644538      -18.7243597251
 C       -10.0592852896       -0.6245199846      -19.7243422221
 C       -10.8448951376       -0.0076311964      -17.3315029924
 C        -6.7457583896       -3.1916654265      -14.5955265115
 C        -5.2457961050       -1.1117668951      -14.7513107492
 C         1.8492194945       -3.6205393607      -13.5020290685
 C         0.8681964231       -4.5796081741      -15.4659629024
 C         2.7336564100      -10.9890245120      -12.0731240070
 C         0.2137844854      -11.3621611625      -12.1254508659
 C         5.2045646325      -11.8152025457       -6.8684446217
 C         3.2205988239      -11.2290607346       -5.4058479929
 C         3.9443874734       -4.2319119083       -9.8294846488
 C         4.8351342548       -4.1736416854       -7.3478638346
 C         1.1835683136        0.1911891792       -9.6217807279
 C         1.9275583324       -0.4548865359       -7.3934544969
 C        -4.4736320259        1.7060995118       -5.9223669747
 C        -4.5579299893       -0.7505680356       -5.8889690902
 C        -9.1004646084        0.6202400417       -2.8432330328
 C       -10.8756967882       -0.0997715712       -4.4231519208
 C        -8.0719850499        7.4584077943       -6.2038984652
 C        -9.7212313505        5.8156091618       -7.2251360502
 C        -1.2329213964        5.7387931418       -8.1771454913
 C        -2.5933393330        7.9307188169       -8.5781155357
 C        -7.8822776528        5.4673707631      -13.1811288049
 C        -8.5130426247        4.4978482366      -10.8465522542
 H        -8.2673498092        2.0280597447      -13.2068957782
 H        -6.5260263111        1.5456579800      -13.3686400059
 H        -7.2211764204        2.8988433792      -14.3583744551
 H        -4.5945789011        5.9001147123      -12.8803168274
 H        -4.4097846321        4.6048190313      -11.5428483452
 H        -4.5353134107        7.2367662295      -10.4392159864
 H        -3.0996508145        6.8916406410      -11.3531704398
 H        -5.3180471505        6.4998260791       -8.1959003549
 H        -4.9775870679        7.4823170107       -6.8331273504
 H        -5.9308954842        5.9615168549       -5.2706919612
 H        -5.3259791661        4.4920126894       -6.3280250365
 H       -10.6884106291        4.3262545720       -5.5170586421
 H       -10.5828271773        5.5224427948       -4.1984415100
 H       -10.8142884043        3.3041215412       -3.2141321873
 H        -9.0864564894        3.4759217383       -3.2190871915
 H        -9.2880242723        0.2145479175       -7.1224746619
 H        -9.1144223139       -1.2415002478       -6.2262110825
 H        -7.2961977055       -0.9245007088       -8.1923913026
 H        -6.8099180075       -1.5138382392       -6.6348156079
 H        -3.8075314751       -1.3758652129       -9.2243453813
 H        -3.0587894070       -1.4709485331       -7.5900685352
 H        -1.6047830577        0.3787060487       -9.6162652047
 H        -1.4901555838       -1.4951908085       -9.7091786077
 H         0.1038206059       -4.1739945354       -8.5869895433
 H        -0.2649286733       -3.2545178857       -7.1490185113
 H         1.2975872444       -4.7347424646       -6.3433136539
 H         2.2907042745       -3.3223189746       -6.5378184512
 H         4.5572091575       -7.1999658838       -6.6305811856
 H         6.0940740432       -6.7951292135       -7.3330359886
 H         6.2923250499       -8.9519350965       -7.3890755787
 H         5.1456445060       -9.1057761065       -8.7057109222
 H         1.2066676684      -10.2790598197       -7.3263163952
 H         1.1273342537      -11.9493899756       -7.2448307140
 H        -0.3089955538      -11.2249254666       -8.9140955735
 H         0.9597052703      -12.2235759121       -9.6580378988
 H        -0.3700571576       -7.6935819078      -11.7215196314
 H        -0.9711071353       -8.8653473375      -12.7635294435
 H        -1.1103392558       -6.8643884777      -14.0645868915
 H         0.4235599440       -7.4176760651      -14.5524394666
 H        -2.6113130452       -4.8451204141      -13.6948488388
 H        -1.7278231459       -4.7025987756      -15.2137257618
 H        -2.4092147005       -2.3573215542      -15.4865100661
 H        -2.8553449647       -2.3082883057      -13.8542761939
 H        -7.4617457548       -3.7789504377      -16.9038015916
 H        -6.2392942293       -3.9425492802      -18.1235835192
 H        -8.4877084713       -3.1865432486      -19.0327420499
 H        -7.1171114176       -1.8976432161      -19.3370888113
 H        -8.0031182778        2.3371847659      -19.4478661899
 H        -8.8131462650        3.2506754557      -18.1668749685
 H        -9.7124290371        2.4616576689      -19.3234274180
 H        -9.1246154868       -0.6712892132      -20.3189652577
 H       -10.6984569141        0.0831574931      -20.2450090596
 H       -10.4128833240       -1.6103722715      -19.6700384971
 H       -10.6483006053        0.1238865982      -16.2991869114
 H       -11.6455124745       -0.6820603418      -17.5481173761
 H       -11.2359249380        1.0356114149      -17.5534049185
 H        -7.6582896467       -2.5788542819      -14.7246684879
 H        -6.7028393800       -3.2898062151      -13.4379010974
 H        -6.9654522724       -4.2305435165      -14.8200488629
 H        -4.2269577302       -0.7534658771      -14.9703216859
 H        -5.5671459255       -1.0606176835      -13.7123211741
 H        -6.0064221432       -0.4104735492      -15.2109366729
 H         1.8910471930       -2.7041314108      -14.1260331415
 H         2.7019640384       -4.1861437915      -13.8730082662
 H         1.7161729425       -3.4724527783      -12.4350872490
 H         0.7180510362       -3.5741365329      -15.8164454912
 H         0.2054187746       -5.2715368429      -16.0252971232
 H         1.9046987310       -4.9492936887      -15.6747302799
 H         2.6343221603      -11.1286719100      -13.1263369245
 H         2.8945855873      -11.9671356197      -11.5414108796
 H         3.5037759714      -10.2481503053      -11.7405567412
 H         0.1964202596      -11.7597681548      -13.1886577500
 H        -0.7461860358      -10.7794761876      -11.9283665736
 H         0.1655057156      -12.3371308872      -11.5693918202
 H         5.7795670748      -11.6365201340       -5.8866670778
 H         5.7794250633      -11.5572617569       -7.8148261709
 H         5.0682802888      -12.9305229895       -6.8860417656
 H         3.9223884519      -11.3568882992       -4.6070948908
 H         2.6851103315      -12.2126348684       -5.5376143706
 H         2.5984293873      -10.3679315946       -5.1652003312
 H         4.8332349025       -4.3705028818      -10.4681151176
 H         3.6625614949       -3.1634076406       -9.8438502926
 H         3.1764915602       -4.7082802397      -10.4079856081
 H         4.8066473352       -4.8865878828       -6.3792949158
 H         4.2686265444       -3.3686170308       -6.9052967059
 H         5.8041042964       -3.8275116532       -7.6200261341
 H         0.4570213887        0.0970589065      -10.3987153827
 H         2.1199502703       -0.1280167200      -10.0604762836
 H         1.2135053678        1.2100713889       -9.3148875498
 H         1.5379857887        0.1196626699       -6.5551895551
 H         2.7106168966        0.1671949059       -7.8809687805
 H         2.3433859510       -1.3609070020       -6.8217120769
 H        -5.2576125434        1.9159936991       -5.2285982636
 H        -4.3836207845        2.5843699890       -6.5823281907
 H        -3.5055351650        1.6446902985       -5.4211721927
 H        -5.1770229591       -0.8172414199       -5.0010416810
 H        -3.5246244636       -0.9304076990       -5.5238161941
 H        -4.7116298241       -1.6845677087       -6.3821864855
 H        -9.6336397673        1.3197703728       -2.2485083397
 H        -8.0572062896        0.8014283507       -2.6113074978
 H        -9.4137291946       -0.3390117886       -2.5222128595
 H       -11.4825614888        0.1801374533       -3.6009837361
 H       -10.5025994171       -1.1322185362       -4.4433554062
 H       -11.4424200603        0.0847616421       -5.2880240721
 H        -7.6269978102        7.8270786685       -7.1675456998
 H        -7.5568164183        7.4896055993       -5.2684959763
 H        -9.0637565715        7.9456494183       -6.0355419938
 H        -9.8024853943        4.8115244004       -7.7077032712
 H        -9.6162499886        6.3938133395       -8.1310585121
 H       -10.6518684343        6.0143584605       -6.6099112583
 H        -0.7895008027        6.3647601496       -7.4215685939
 H        -0.6338528168        5.7809664719       -9.0451266646
 H        -1.3032029297        4.7365944946       -7.8912667033
 H        -3.5804827498        8.3980384802       -8.6342890042
 H        -2.0530183023        8.1753263348       -9.4571490401
 H        -2.2558660255        8.5635772207       -7.7706674485
 H        -7.3075511965        5.4657638188      -14.1155550108
 H        -8.0715820245        6.4795821912      -12.7859214479
 H        -8.8151728650        5.0262046349      -13.5343631684
 H        -8.5905899956        3.4020244277      -10.6888643690
 H        -9.5824465349        4.8940810273      -11.0508338704
 H        -8.1408807760        5.0976535887      -10.0196745209
 Na       -5.4736555050        3.2075993342       -8.9652042394
 Na        2.5327295458       -6.9357858700      -10.6500630473
