232

 C        -7.1981276289        2.5425323052      -13.2817700255
 C        -6.9068161527        3.3442089920      -12.0383945304
 O        -6.2085624445        2.8661076674      -11.1428480917
 C        -7.3803779373        4.8712863748      -11.8949207495
 C        -6.2281386672        5.7690913771      -11.3683980630
 O        -6.5413688076        6.7511220363      -10.7607518624
 C        -4.7653969098        5.4992946219      -11.9061012433
 C        -3.6951205109        6.1305283760      -10.9630863456
 C        -3.5280717748        5.5566424399       -9.5809527744
 O        -3.7540491469        4.3599047870       -9.2752996789
 C        -2.6016780243        6.3963882307       -8.5585457147
 C        -3.3343169811        5.9965296871       -7.1152559425
 O        -2.8322194726        5.1798659904       -6.3441982348
 C        -4.7697481145        6.4181319214       -7.0587229115
 C        -5.7251868706        5.3653084550       -6.4836878889
 C        -7.1556431432        5.3679598731       -7.1253519396
 O        -7.3586997739        4.7740350652       -8.2462274853
 C        -8.3952675631        6.1285969554       -6.4378968810
 C        -8.6444175421        5.4085112290       -5.0227990525
 O        -7.7899334579        5.5314235350       -4.2124796794
 C       -10.0308168163        4.9062913633       -4.5138625842
 C        -9.9256488683        3.4801630706       -3.8474375540
 C       -10.0403083182        2.2879565217       -4.7712569756
 O       -10.4581724441        2.4719787099       -5.8879990646
 C        -9.7023908364        0.7894724028       -4.2409054586
 C        -8.5248082257        0.2725441107       -5.0983504865
 O        -7.3958062255        0.5637556684       -4.7625097583
 C        -8.7165003516       -0.2653613599       -6.5073969070
 C        -7.3940009998       -0.7797239107       -7.0927271388
 C        -6.3968732745        0.3764838531       -7.3422968605
 O        -6.7954160136        1.3037972968       -7.9924446184
 C        -4.9574903957        0.2905116055       -6.8986973672
 C        -4.0353734412        0.2005108046       -8.2205142955
 O        -4.0157132270        1.1404708754       -8.9900805859
 C        -3.0212140801       -0.9938731589       -8.5071018759
 C        -1.6726141890       -0.4138295894       -9.1174355440
 C        -0.5123400496       -0.3853910115       -8.0515129998
 O        -0.7422919627       -0.0964059369       -6.9177704607
 C         0.9877212355       -0.6739089452       -8.6325558536
 C         1.0522228110       -2.2059913274       -8.8971876806
 O         1.4921947253       -2.7306229720       -9.9207882726
 C         0.9131368929       -3.1610765470       -7.6399041980
 C         2.0670318290       -3.9579884393       -7.1590317193
 C         2.6334216535       -4.8920177127       -8.1886273059
 O         1.8541591155       -5.7137741789       -8.6258526860
 C         4.0323987358       -4.8216516484       -8.5900974649
 C         4.5895708873       -6.3974989704       -8.5643963619
 O         4.4751433708       -6.9712396029       -9.6133077370
 C         5.2426008548       -7.0166561732       -7.3053957671
 C         5.2537077662       -8.6295059554       -7.3684947047
 C         4.0549508193       -9.2614482115       -6.8938693194
 O         2.9567455325       -8.7399190885       -6.6241435174
 C         4.0015069076      -10.8964451552       -6.9024747324
 C         3.0130300136      -11.2617251873       -8.1191551263
 O         3.4670504353      -11.3366719873       -9.2714390491
 C         1.5190498427      -11.2660271660       -7.8247006275
 C         0.7924206038      -11.5462946451       -9.1551080312
 C         0.9399973320      -10.2315678624      -10.1177764370
 O         1.2615705323       -9.1853597602       -9.6380644026
 C         1.1157164805      -10.3895114862      -11.7262517066
 C         1.2248777751       -9.0035273667      -12.3431903984
 O         2.3180007616       -8.4931755687      -12.4480350481
 C         0.0306595301       -8.3454475968      -12.8883358404
 C         0.3761945467       -7.1856552560      -13.7755347048
 C         0.7226039780       -5.8084591980      -13.0840025273
 O         0.9800959041       -5.5991174301      -11.8903787286
 C         0.6809520155       -4.5933658429      -14.0226928224
 C        -0.6541956804       -3.7476559874      -13.6530428061
 O        -0.4637042051       -2.8508402290      -12.8601727188
 C        -1.9846374604       -4.1663856472      -14.2758821317
 C        -2.9479717095       -3.0467402861      -14.8604471968
 C        -4.3705911655       -3.5407529270      -14.9842482102
 O        -4.6245309158       -4.7063093040      -15.0406660512
 C        -5.5445935547       -2.5212934406      -15.1135081678
 C        -5.8009902624       -2.3277026443      -16.6434944885
 O        -5.2752748063       -1.3384067331      -17.1650189077
 C        -6.6942158915       -3.2647291933      -17.4495406670
 C        -7.7687062899       -2.3634584463      -18.1842729383
 C        -8.7774670074       -1.6225300948      -17.3197758139
 O        -9.0391801145       -2.0019723311      -16.1969897449
 C        -9.5804271248       -0.3283167595      -17.8325705383
 C        -8.7186959069        0.9347079894      -18.0155808341
 O        -7.6486841871        1.0387986291      -17.4258176202
 C        -9.0040950835        1.9703948137      -19.1115105462
 C        -9.9769259092       -0.7942382022      -19.3414555759
 C       -10.8667108986       -0.0970633404      -17.0342807267
 C        -6.8169442815       -3.0918550502      -14.3781405670
 C        -5.0929263767       -1.0815267012      -14.5563611051
 C         1.8662845206       -3.6884005286      -13.7699882603
 C         0.7313214484       -4.8510733619      -15.5324458596
 C         2.4003845746      -11.1748692884      -11.9686035385
 C        -0.2021887382      -11.1124677739      -12.1358431902
 C         5.4450473914      -11.5930825391       -7.1199223834
 C         3.5776119311      -11.4098038480       -5.5071469742
 C         4.2306109295       -4.2014651285       -9.9659501736
 C         4.9309457631       -4.0979035990       -7.5531402575
 C         1.2997217493        0.1259271943       -9.8311261946
 C         1.8338130106       -0.2317807142       -7.4320127261
 C        -4.5144280390        1.5875560485       -6.3069393293
 C        -4.6894662420       -0.8565015514       -5.9183671068
 C        -9.4756975932        0.7715269857       -2.7337344427
 C       -11.0672806638       -0.0850876619       -4.4834114271
 C        -7.9141115119        7.5847294879       -6.0106363654
 C        -9.5555764704        6.1366038031       -7.4776117209
 C        -1.2820562755        5.6808401932       -8.4488179262
 C        -2.4470760139        7.9141466449       -8.6481856975
 C        -7.8299455225        5.4092485226      -13.2694177404
 C        -8.7042708789        4.9669081804      -10.9659427377
 H        -8.2632938741        2.5812047563      -13.4371480049
 H        -6.9260349501        1.5062963483      -13.2356852128
 H        -6.6620390044        2.8628230058      -14.1604701657
 H        -4.6113655825        5.9689122988      -12.8754729458
 H        -4.6755977224        4.3827186368      -11.8339820036
 H        -3.9851017991        7.2437045441      -10.7595516840
 H        -2.7558231500        6.0188982312      -11.4644298189
 H        -4.9642548676        6.7924666358       -8.1096785095
 H        -4.8765431031        7.2480477148       -6.3570885289
 H        -5.8334174536        5.4871452130       -5.4453782398
 H        -5.2953703294        4.4284623455       -6.6290774516
 H       -10.8458597806        4.7851529179       -5.3224845606
 H       -10.4094295306        5.5300445118       -3.7796292065
 H       -10.6912512953        3.4425952650       -3.0584145273
 H        -8.9677322179        3.4268496070       -3.2976257815
 H        -9.0774868169        0.6157738154       -7.0758652726
 H        -9.5032518291       -1.0058191312       -6.4899792661
 H        -7.7561998941       -1.2827391493       -8.0336351888
 H        -7.1453913877       -1.5923964924       -6.3691635413
 H        -3.5232072387       -1.7718200333       -9.1746104033
 H        -2.8686472283       -1.3935865248       -7.5884523171
 H        -1.8047457530        0.6234708526       -9.4407552646
 H        -1.3728241600       -0.9582349351       -9.9702139072
 H         0.2255529218       -4.0349906190       -7.9729155854
 H         0.3508409963       -2.6447435297       -6.8566979678
 H         1.8044457491       -4.6281408637       -6.3467993434
 H         2.8001842206       -3.2153868376       -6.7595288910
 H         4.6858674595       -6.7892525928       -6.3537695915
 H         6.2699460774       -6.6068099448       -7.2909951219
 H         6.1495673059       -8.9795237182       -6.8940946462
 H         5.3781179172       -8.9244176844       -8.4037808193
 H         1.1313999292      -10.3315277092       -7.4069135698
 H         1.2611769042      -11.9943466185       -7.0074036405
 H        -0.2993051635      -11.6083392163       -9.1377723960
 H         1.1495286543      -12.4862670350       -9.6336428375
 H        -0.6624167550       -8.0075694273      -12.1584575417
 H        -0.6225120912       -8.9314476425      -13.5088528423
 H        -0.4092181619       -6.8709896363      -14.5905009239
 H         1.2022691800       -7.5727031013      -14.3418525642
 H        -2.5220577495       -4.6114740720      -13.4481267312
 H        -1.7828075897       -4.8936147788      -14.9729122166
 H        -2.4423328021       -2.4482419732      -15.7079244255
 H        -2.9464035544       -2.3652917087      -14.0200334100
 H        -7.1755146458       -4.0464262131      -16.8841456193
 H        -6.1190418414       -3.8152959301      -18.1892615222
 H        -8.3561373730       -2.9986375212      -18.7285461480
 H        -7.3111229477       -1.6180373277      -18.8072685544
 H        -8.1303090264        2.1336266363      -19.6831459186
 H        -9.3848570711        2.9846242949      -18.8711170116
 H        -9.7566426113        1.6321854203      -19.8133384504
 H        -9.1128906583       -0.6887422645      -20.0258680344
 H       -10.8094326650       -0.2646060313      -19.7926161880
 H       -10.2511864077       -1.8538166471      -19.2488189609
 H       -10.8089810542        0.3810623389      -16.0552577293
 H       -11.3918736353       -1.0695707123      -17.0124949568
 H       -11.5360431501        0.6045310481      -17.5182896620
 H        -7.7507480008       -2.6099478506      -14.5317934564
 H        -6.6641762274       -2.9154216884      -13.2693341319
 H        -6.9397283658       -4.0998146205      -14.5312641019
 H        -4.6050878193       -0.5065125378      -15.2928884673
 H        -4.5030141170       -1.1564153611      -13.6268056753
 H        -6.0123159244       -0.6476241405      -14.2627735630
 H         1.6714495983       -2.7380413496      -14.1890187205
 H         2.6772665607       -4.1844184412      -14.3237614698
 H         1.9775856686       -3.6174628590      -12.6816805021
 H         0.6148464457       -3.9186895386      -16.0338806824
 H        -0.0265540181       -5.5571233161      -16.0055602084
 H         1.7465543464       -5.1157402848      -15.7546134444
 H         2.6269292554      -11.0310495521      -12.9866098727
 H         2.2665349238      -12.2014065144      -11.7968292312
 H         3.0951414643      -10.7455211902      -11.2544958218
 H        -0.3626863195      -11.1715670732      -13.1807034617
 H        -1.1350336898      -10.7100256262      -11.7668521304
 H        -0.1881387823      -12.0905872854      -11.7419544717
 H         6.2356036632      -11.1507630919       -6.5329652557
 H         5.7510977788      -11.5945681022       -8.1294546347
 H         5.3216530240      -12.5558635877       -6.7865424041
 H         4.3230431159      -11.1822627015       -4.7912763450
 H         3.4119436143      -12.5072346596       -5.5556822971
 H         2.6432655653      -10.9234065177       -5.2589206745
 H         5.2653558013       -3.8783651046      -10.0906640389
 H         3.7123027623       -3.2377426816       -9.9895153101
 H         3.8752014409       -4.7601811122      -10.8430332704
 H         4.6114046031       -4.3042808845       -6.4714161531
 H         5.0133928190       -3.0762515949       -7.7486262497
 H         5.9521972175       -4.4549384990       -7.6519125751
 H         0.5015001682        0.1613365077      -10.5530520756
 H         2.2051837465       -0.3545077548      -10.2837761010
 H         1.5040652138        1.2215205325       -9.5948837900
 H         1.8666579516       -0.9555119098       -6.6684823087
 H         1.3731018338        0.6686743792       -6.9095735699
 H         2.8536946919        0.0579392291       -7.8131708663
 H        -4.8341299845        1.7590578158       -5.2843298414
 H        -4.9095591265        2.4054091051       -6.9161078206
 H        -3.4162766874        1.6385501223       -6.2922656385
 H        -5.4534221852       -0.7766493250       -5.1493307668
 H        -3.7389682145       -0.9058915858       -5.3765583283
 H        -4.8758788004       -1.8749128357       -6.2593593778
 H       -10.4079675971        1.0438473761       -2.1332381717
 H        -8.6762551763        1.5142087370       -2.4429143156
 H        -9.1054937911       -0.2038063716       -2.5119834546
 H       -11.8506828858        0.4485051190       -3.9184245079
 H       -10.8750185434       -1.1222750172       -4.1421183707
 H       -11.3690197742       -0.0984765253       -5.5231999591
 H        -8.2060410709        8.1036119095       -6.8782999975
 H        -6.8741191328        7.5930382977       -5.8228679795
 H        -8.4880217866        7.9045429101       -5.1125710932
 H       -10.1576455262        5.2724947666       -7.5748265867
 H        -9.2198891213        6.4298381686       -8.4633530388
 H       -10.2273014757        6.8845798978       -7.0785125465
 H        -0.8211359331        6.0644814189       -7.4737594601
 H        -0.5961281189        5.9018550089       -9.2461780488
 H        -1.4690658829        4.5992551071       -8.4424601400
 H        -3.4202638812        8.4993023076       -8.6544349759
 H        -1.9530484078        8.2518585338       -9.5026286472
 H        -1.9559210913        8.3677023216       -7.7580588323
 H        -7.1740200808        5.1454084437      -14.0773669323
 H        -8.0324642917        6.4818819125      -13.2322394939
 H        -8.7757842750        4.9832980130      -13.5618402214
 H        -9.2682527386        4.1077798915      -11.1586893920
 H        -9.2823218026        5.8632506433      -11.1939805870
 H        -8.3217414043        4.9801455530       -9.9448514793
 Na       -5.6542567263        3.0876309076       -9.1304897569
 Na        2.0943549250       -7.1182040549      -10.4477847862
