232

 C        -7.2329313555        2.5827097676      -13.2499940277
 C        -6.9698338043        3.4292967713      -12.0764467529
 O        -6.2215939990        3.0215350004      -11.1492878898
 C        -7.4291124897        4.8928165704      -12.0492576700
 C        -6.2782776725        5.6877589921      -11.3657995626
 O        -6.3899516964        6.6876431475      -10.6943886037
 C        -4.8077464708        5.4246462971      -11.9206204168
 C        -3.7498569449        6.1408354294      -10.9956965406
 C        -3.4090759967        5.4930378788       -9.5909583147
 O        -3.8340834062        4.4663716922       -9.1901215442
 C        -2.5757792446        6.2402261680       -8.5223653691
 C        -3.3136526618        5.9095137640       -7.1687801237
 O        -2.7405476009        5.2883418647       -6.3097297416
 C        -4.7720130905        6.5327090791       -7.0141647641
 C        -5.7338620977        5.4392920283       -6.4588597775
 C        -7.1250193240        5.4075280890       -7.1059854842
 O        -7.2967194240        4.7825948249       -8.0987771642
 C        -8.3536767364        6.1536692602       -6.4204535270
 C        -8.5907557143        5.5353847915       -5.0218761137
 O        -7.7115211175        5.5312254611       -4.1840773859
 C        -9.9935354198        4.8946365708       -4.6702209023
 C        -9.8833628408        3.5949215572       -3.8986561076
 C       -10.1364533529        2.3503562184       -4.8305313499
 O       -10.5341648258        2.4568923000       -5.9737430393
 C        -9.7655851810        0.9205275789       -4.2189812190
 C        -8.4851451099        0.4367279251       -5.0826413360
 O        -7.3749463084        0.4232983226       -4.5610156472
 C        -8.7443516611       -0.1667127354       -6.5279068423
 C        -7.4021807999       -0.8517126132       -7.0415206383
 C        -6.4251425387        0.3096464935       -7.4646536683
 O        -6.9183490400        1.2800215159       -8.0295844623
 C        -4.9806018103        0.2294094471       -6.9673888875
 C        -4.0152420043        0.1620045837       -8.2702184794
 O        -4.1741191857        1.0266866914       -9.0767566741
 C        -2.9489675590       -0.9368026201       -8.4583701441
 C        -1.7286507954       -0.4094880533       -9.1828849202
 C        -0.5201665810       -0.2766404853       -8.1879468899
 O        -0.7722302905        0.0584148983       -7.0281524705
 C         0.9573678550       -0.6454984472       -8.5840323352
 C         1.2226653289       -2.2502634932       -8.7684702918
 O         1.5137102808       -2.6054170038       -9.8446383226
 C         0.7851081397       -3.2067541889       -7.5891384094
 C         2.0998155991       -3.8581606596       -7.0692362983
 C         2.7584617001       -4.8940040623       -8.1800079801
 O         1.9441748114       -5.5737877122       -8.7606127703
 C         4.2814244120       -4.9079681953       -8.5699826806
 C         4.5372394431       -6.4320976245       -8.6128672622
 O         4.2045887353       -7.1684758497       -9.5671714022
 C         5.1639426222       -6.9900125824       -7.4168511109
 C         5.2214144176       -8.5585516134       -7.3339783572
 C         3.9283780974       -9.2472332082       -7.0123154713
 O         2.9622224420       -8.6786447311       -6.6117658335
 C         3.9860059856      -10.8766682819       -6.9647976468
 C         3.0756404461      -11.2832967197       -8.1294302354
 O         3.5449615857      -11.3989224408       -9.2560028803
 C         1.5776171679      -11.2829249277       -7.8957232533
 C         0.8186627878      -11.4952323986       -9.1943451135
 C         0.9978376982      -10.2950886361      -10.0921269685
 O         1.1801085625       -9.2550098621       -9.5048510079
 C         1.0005788597      -10.4731218859      -11.6088956705
 C         1.2375419495       -9.0084710547      -12.3335900238
 O         2.3586931624       -8.5244248326      -12.3399473702
 C         0.0719308878       -8.3891845911      -13.0195930594
 C         0.4302171033       -7.1266461040      -13.8254654190
 C         0.7110899682       -5.7735515144      -13.1552599905
 O         1.0492172705       -5.7816409822      -11.9609928328
 C         0.7601926281       -4.4886416584      -14.0743160531
 C        -0.6248394985       -3.7200454126      -13.7302517219
 O        -0.6878835500       -2.8090854860      -12.9119100890
 C        -1.9996369236       -4.2232834863      -14.2405729991
 C        -2.8968931949       -3.0964682256      -14.7641676025
 C        -4.3829477240       -3.5576896155      -14.9143356740
 O        -4.5888461530       -4.7438909363      -15.1360910329
 C        -5.5356469626       -2.4776722531      -14.9844101952
 C        -5.7205921489       -2.2506464675      -16.5723597088
 O        -5.0174928685       -1.4171985515      -17.0898909615
 C        -6.7055919134       -3.1270759006      -17.3288444327
 C        -7.7668957329       -2.3850725674      -18.1146568663
 C        -8.7312673165       -1.6011172202      -17.1440008323
 O        -9.0600335856       -1.9288343237      -16.0462028739
 C        -9.6020863539       -0.4369558018      -17.9144286011
 C        -8.6305190429        0.7995141849      -18.1489100626
 O        -7.6305039705        0.9722917372      -17.4824503036
 C        -9.0607864539        1.9537841238      -19.1251708952
 C       -10.1104830695       -1.0330179189      -19.2560763162
 C       -10.8011359679        0.0083852497      -16.9991129571
 C        -6.7742545727       -2.9768700670      -14.2776255164
 C        -5.2216052503       -1.0540343885      -14.4266579438
 C         2.0191582176       -3.5838455460      -13.8300325844
 C         0.7142037390       -5.0059884190      -15.5986956374
 C         2.2948987270      -11.3328930570      -11.8905085804
 C        -0.3736310459      -11.1744187625      -12.0954578383
 C         5.4656504212      -11.2928679614       -7.3200788024
 C         3.5435046480      -11.4067904636       -5.5685863694
 C         4.2597488919       -4.4376216890      -10.0569906668
 C         5.0805689696       -4.1216658216       -7.4284760171
 C         1.3065447479        0.0477612500       -9.9437462172
 C         1.9411567251       -0.0951711114       -7.4649412473
 C        -4.6148974800        1.5583496862       -6.2056690075
 C        -4.7071128309       -0.9137967159       -5.9656907348
 C        -9.5403685135        0.6984033341       -2.7172073799
 C       -11.0638987735        0.0204437196       -4.4980773286
 C        -7.9097612096        7.5929644212       -6.1122758324
 C        -9.5152228125        6.1570130217       -7.3478455717
 C        -1.1183307860        5.5395721256       -8.6188541543
 C        -2.6336925967        7.7839642145       -8.6670305702
 C        -7.6666627187        5.6056725789      -13.3329011708
 C        -8.6968405309        4.9306165057      -11.1371357474
 H        -8.3125087522        2.3268340164      -13.4472402395
 H        -6.7303034974        1.6250263610      -13.0600390431
 H        -6.6981211218        2.8592899713      -14.1386616493
 H        -4.7188746682        5.9701689047      -12.9001067353
 H        -4.6310849970        4.3459016907      -11.9605352343
 H        -4.1632177849        7.0778374931      -10.7782318691
 H        -2.8656058160        6.1938912388      -11.6059754371
 H        -5.0361460546        6.8836418029       -7.9909305240
 H        -4.8145085476        7.3291969277       -6.2577445655
 H        -5.8262257916        5.4149526034       -5.3463589194
 H        -5.2889316754        4.4933316970       -6.7057636322
 H       -10.5202115209        4.6937094969       -5.6252928158
 H       -10.6680414973        5.5128564154       -4.0448184099
 H       -10.5404286020        3.5651945458       -2.9903102317
 H        -8.8640603655        3.6086153851       -3.4905782762
 H        -8.9737702962        0.6898271727       -7.2814099776
 H        -9.6290817486       -0.8525756526       -6.4434224346
 H        -7.7819168213       -1.4249186038       -7.8753754686
 H        -7.1334268194       -1.6063877598       -6.2297556381
 H        -3.4400245000       -1.6370076047       -9.1536764876
 H        -2.8263824361       -1.4661062316       -7.4562712505
 H        -2.0065121662        0.5604167286       -9.6826577494
 H        -1.4688135501       -1.1164836313      -10.0125564121
 H         0.1438674797       -4.1268758925       -7.8718399616
 H         0.2015421025       -2.5901158938       -6.9203743789
 H         2.0137870746       -4.4471630426       -6.1788237725
 H         2.7266319409       -3.0249326747       -6.8556550792
 H         4.4783431917       -6.6989328782       -6.6227121487
 H         6.1321664308       -6.5192488531       -7.3108206577
 H         5.9412870219       -8.8170303974       -6.5548081240
 H         5.7409440833       -8.7871720476       -8.2762503898
 H         1.1419606669      -10.3139110889       -7.5102675165
 H         1.2846070407      -11.9578187065       -7.1565072063
 H        -0.3157231056      -11.4522334345       -9.1272708484
 H         1.0184355536      -12.3792173614       -9.6830323205
 H        -0.5607543148       -8.0653062952      -12.2375266294
 H        -0.6206891212       -8.8735152547      -13.6961571206
 H        -0.2786941395       -6.8895723560      -14.5498949425
 H         1.2946841921       -7.4376930606      -14.3697057396
 H        -2.4634075190       -4.6811796663      -13.4253370339
 H        -1.8893726595       -4.9261685406      -15.0702155645
 H        -2.5452281887       -2.9522390642      -15.8259624591
 H        -2.6598021526       -2.1725508562      -14.2781079374
 H        -7.1263356084       -3.9621742472      -16.7690303395
 H        -6.1081166181       -3.6360616518      -18.0152183755
 H        -8.4611746860       -3.1874792539      -18.5920258352
 H        -7.3578847151       -1.7129280388      -18.8327756098
 H        -8.2515955257        2.2907999358      -19.8010788224
 H        -9.3554477721        2.8678660231      -18.6392807309
 H        -9.9113942816        1.7369751038      -19.7511609912
 H        -9.4334986894       -0.7542802833      -20.0732688057
 H       -11.1238256883       -0.7438497932      -19.5474560066
 H       -10.1672120775       -2.0772305508      -19.1606111951
 H       -10.5092302125        0.4122333683      -16.0708211087
 H       -11.4567715259       -0.8091343333      -16.8146278280
 H       -11.4345947137        0.8549658649      -17.4178807348
 H        -7.7251746874       -2.4992122018      -14.5494237970
 H        -6.7379642711       -2.7934601942      -13.1735659715
 H        -6.9270252663       -4.0772831711      -14.4905712455
 H        -4.6001707268       -0.5563586692      -15.1621680949
 H        -4.7728377527       -1.0313653835      -13.4692320663
 H        -6.2380001352       -0.5996785000      -14.4240003669
 H         2.0639909787       -2.7316095278      -14.5413311324
 H         2.8498525197       -4.2657605610      -13.9068479803
 H         1.8664599211       -3.2338935425      -12.8171593162
 H         0.9953770389       -4.1501328582      -16.2486365472
 H        -0.1952236037       -5.3880370781      -16.0080838401
 H         1.6273036662       -5.6505355372      -15.7405093272
 H         2.2761792517      -11.5687947197      -12.9005887549
 H         2.3424032260      -12.2972539292      -11.3459816246
 H         3.0668040918      -10.6930151425      -11.5634401866
 H        -0.6848182314      -10.8361362067      -13.0993778345
 H        -1.2918845111      -11.0158633457      -11.5316093375
 H        -0.3193018015      -12.2471920140      -12.0358285923
 H         6.1193608317      -10.8101316874       -6.6021068870
 H         5.7749619036      -10.9196426492       -8.2817810766
 H         5.5602758661      -12.4104302660       -7.2144460582
 H         4.1556780029      -10.9773335013       -4.7801446140
 H         3.6353199470      -12.5240021862       -5.5656961561
 H         2.4749980419      -11.1640594375       -5.4549244413
 H         5.2450223140       -4.1211423452      -10.4342210277
 H         3.6565242651       -3.5256549426      -10.2020213411
 H         3.8238524349       -5.1900813160      -10.6836347908
 H         4.7016478639       -4.4165587527       -6.3589664298
 H         4.9285027725       -3.0930071153       -7.6696515587
 H         6.1235948008       -4.2447009697       -7.3913500791
 H         0.6476886056       -0.1692363108      -10.8315737494
 H         2.3634411075       -0.2810657922      -10.1315697000
 H         1.2703622895        1.1023311701       -9.8552305648
 H         2.4960756626       -0.9383326853       -6.8509741158
 H         1.5714622274        0.5231609032       -6.6870188042
 H         2.6741133786        0.4542367864       -8.1508117788
 H        -5.1597259001        1.6296921221       -5.2844259229
 H        -4.9060613046        2.4193485705       -6.8210804178
 H        -3.5744126508        1.6161992605       -5.8991670543
 H        -5.4511881927       -0.8189749111       -5.1746501149
 H        -3.7344530091       -0.9149449935       -5.4007768072
 H        -4.9015571806       -1.9240498924       -6.2861218305
 H       -10.3411270089        1.0352758894       -2.1160591162
 H        -8.6248874273        1.2825031135       -2.4758002521
 H        -9.2753224778       -0.3628106345       -2.5629693852
 H       -11.8168688912        0.3251405198       -3.7895686926
 H       -10.7393630987       -1.0381267497       -4.3344336996
 H       -11.4181955359        0.1395272862       -5.5076635766
 H        -7.7646897731        8.0839846841       -7.1180905365
 H        -7.0475304285        7.5297525671       -5.4844954811
 H        -8.7745020752        7.9548129565       -5.6023055330
 H        -9.9982439217        5.2353590413       -7.6198662430
 H        -9.2827255294        6.7341078105       -8.2014268910
 H       -10.2840004648        6.7177447565       -6.8066818073
 H        -0.5504947897        5.8566042111       -7.8059003122
 H        -0.6408497244        5.9803370387       -9.4898210749
 H        -1.1708213835        4.4922932020       -8.7086583919
 H        -3.6577896134        8.1077636829       -8.8280809241
 H        -2.2521499637        8.0170100624       -9.6642588610
 H        -2.2523163041        8.4967192169       -7.9651383252
 H        -7.1992864209        5.2038017693      -14.2380220659
 H        -7.3878687118        6.6363062417      -13.1686263749
 H        -8.7234490373        5.7298732643      -13.5573296897
 H        -9.5572983428        4.3800684972      -11.6089776480
 H        -8.9555490565        6.0128982956      -10.9745657361
 H        -8.3402853492        4.4550301924      -10.2392848159
 Na       -5.7962648289        3.0769157415       -8.9842623831
 Na        2.0710607748       -7.1586558194      -10.3247208831
