232

 C        -7.7331289291        2.7151659303      -13.5948237235
 C        -7.2020928042        3.4282560981      -12.3681961295
 O        -6.9879528032        2.7942312759      -11.3887868290
 C        -7.2260298630        5.1121028365      -12.3145683168
 C        -5.9841041758        5.5471068453      -11.3209773114
 O        -6.1228574772        5.9871798552      -10.1845937098
 C        -4.5845268284        5.4234113505      -11.9848465717
 C        -3.4664729085        6.0284834900      -11.1786367359
 C        -3.5221826922        5.5292328271       -9.6097391937
 O        -4.1400511797        4.4798406143       -9.2668954985
 C        -2.5564332420        6.2286460804       -8.6056493999
 C        -3.1901342297        6.1560450778       -7.1680559697
 O        -2.5992254887        5.5586335162       -6.2786944704
 C        -4.6233217907        6.7399725809       -7.0374153329
 C        -5.3677234027        5.6331622318       -6.2784176911
 C        -6.8184591679        5.3714257084       -6.8152998467
 O        -7.0557780621        4.4315418722       -7.5564934721
 C        -7.9368975419        6.3959894685       -6.3265875659
 C        -8.5447561703        5.6979173968       -5.0965920830
 O        -7.8469211984        5.7491126052       -4.0741266664
 C        -9.8592151912        4.9751570489       -4.9710455482
 C        -9.7377569255        3.6772542318       -4.1965603988
 C       -10.1170379665        2.3481581738       -4.9438411252
 O       -10.4400051855        2.4011998502       -6.1205692750
 C       -10.0431070066        0.9594174890       -4.1771179896
 C        -8.8656260628        0.1961956363       -4.8187646756
 O        -7.7910289087        0.1382067930       -4.2797489326
 C        -9.1098330017       -0.2565276100       -6.2563716168
 C        -7.8159375796       -0.8012381657       -6.9576780198
 C        -6.7469707619        0.1377181645       -7.4168994990
 O        -7.0280401979        1.0933232133       -8.1967145085
 C        -5.1200868402        0.0383702510       -6.9923672199
 C        -4.1466516975        0.1484863436       -8.1897016281
 O        -4.0846988942        1.1981773150       -8.8145421417
 C        -3.0739614852       -0.9154763630       -8.5678167954
 C        -1.8406473083       -0.4280946349       -9.3207434167
 C        -0.7130842730       -0.0194318304       -8.4075203415
 O        -0.9311726207        0.4522907197       -7.3391512225
 C         0.8150788480       -0.2050355143       -8.8494282575
 C         1.2932987849       -1.7977320660       -8.7382079783
 O         1.8716145783       -2.3168763107       -9.7191803127
 C         1.2161559973       -2.6568112787       -7.4528908266
 C         2.3949803369       -3.5960100997       -7.0465960255
 C         2.5837342287       -4.5263406384       -8.2087613793
 O         1.6558660815       -5.1311046129       -8.7616331185
 C         4.0427613323       -4.9431116421       -8.6615153208
 C         4.1763045527       -6.5431191620       -8.2090896903
 O         3.6279435413       -7.3212250538       -8.9272040269
 C         5.0984393802       -7.0135536047       -7.0945286479
 C         5.4529311527       -8.4911961539       -7.0933339206
 C         4.1920861071       -9.4108558400       -6.9617662784
 O         3.0943732761       -8.8754972096       -6.8747472124
 C         4.2334626101      -10.9649024646       -7.1282529866
 C         3.1560848042      -11.2805036144       -8.1519642606
 O         3.4955379510      -11.6472238092       -9.2675366499
 C         1.7259814904      -11.2618347638       -7.7514650347
 C         0.8298740756      -11.5599075795       -9.0528937641
 C         0.7985142184      -10.2716260671       -9.9880675670
 O         0.9886276491       -9.1986474466       -9.4525904246
 C         0.6275819540      -10.4906311048      -11.6173678920
 C         1.0822695768       -9.1958978695      -12.4463487925
 O         2.2090923587       -8.7663905234      -12.2647804004
 C         0.0171135235       -8.4216760050      -13.1274878795
 C         0.5537150918       -7.3096540298      -14.1030570957
 C         0.9536051611       -5.9750394052      -13.4120954580
 O         1.1522482198       -6.0251414733      -12.2285740276
 C         0.9103930076       -4.6455256824      -14.2336568886
 C        -0.4072639553       -3.8561355650      -13.8285362436
 O        -0.3263447652       -2.9216149041      -13.0759829410
 C        -1.6981043467       -4.2635110062      -14.4293619391
 C        -2.9171594758       -3.3093171448      -14.3053798997
 C        -4.3173061725       -3.7587320996      -14.5503867349
 O        -4.7162091304       -4.9097141470      -14.6905104315
 C        -5.3493817325       -2.5981781702      -14.5191268819
 C        -5.6380586468       -2.3984703179      -16.1265250278
 O        -4.8553469413       -1.6601868285      -16.6898549766
 C        -6.7457972678       -3.1247099940      -16.7835305099
 C        -7.6454520298       -2.1996509109      -17.6755327271
 C        -8.7273218958       -1.4841593327      -16.9575574489
 O        -8.8966720897       -1.6172979349      -15.7503628432
 C        -9.5883501321       -0.4489931755      -17.6964639188
 C        -8.7569423088        0.6001516816      -18.5024334213
 O        -7.5676166366        0.6819737641      -18.2679073556
 C        -9.4045835349        1.5828203479      -19.4791271087
 C       -10.4380045754       -1.3644085637      -18.7768266162
 C       -10.6474480531        0.0767189150      -16.6806817888
 C        -6.6225409001       -2.8664847978      -13.6307649351
 C        -4.8064782676       -1.1482447150      -14.0632928677
 C         2.1027434766       -3.8206227216      -13.7000531425
 C         1.0574843999       -4.8425430461      -15.7350013708
 C         1.6018373904      -11.6154567823      -11.9430309973
 C        -0.8422995279      -11.0441663496      -11.9862630193
 C         5.6330492158      -11.5608855805       -7.5955182368
 C         3.8265417989      -11.5105737597       -5.7001912725
 C         4.2454876140       -5.0012453661      -10.2775196308
 C         5.3062198760       -3.9889909436       -8.2766763087
 C         0.9656916356        0.0915727932      -10.3440956256
 C         1.8202206400        0.7345887662       -8.0074749958
 C        -4.8579261832        1.3276791276       -6.1664886295
 C        -4.9173454749       -1.2063854759       -6.1128394201
 C        -9.5425346275        1.1148300334       -2.6390239437
 C       -11.3961834256        0.1845405337       -4.4261017288
 C        -7.4152840207        7.8282116770       -5.8955249646
 C        -8.9645064243        6.5759069925       -7.5611990529
 C        -1.1584529573        5.5033140084       -8.7035410911
 C        -2.2130842096        7.6891841738       -8.8870977228
 C        -7.2266298893        5.7626235755      -13.8001586682
 C        -8.5759816309        5.5756429425      -11.6324467438
 H        -8.5798352373        3.1810006343      -14.0458278096
 H        -8.0176469777        1.6645776601      -13.3926584664
 H        -6.9180536168        2.6603136709      -14.3600483431
 H        -4.8242453791        5.9819389045      -12.9226946517
 H        -4.4339699237        4.4112533595      -12.3441092129
 H        -3.5397122617        7.0654482458      -11.2656435346
 H        -2.5714416390        5.5964368987      -11.5963535770
 H        -5.0122404087        6.8899806407       -8.0178960776
 H        -4.5587001862        7.6716596080       -6.4743442884
 H        -5.4399383110        5.9146399084       -5.2399908330
 H        -4.8217702647        4.6453121102       -6.2268756953
 H       -10.2425844721        4.6229182575       -5.9024239673
 H       -10.6418984097        5.6422409572       -4.4225224866
 H       -10.3964456735        3.6289347166       -3.3215478084
 H        -8.7316069839        3.4066956532       -3.8672688808
 H        -9.4054937024        0.6914277066       -6.7848122841
 H        -9.8681297967       -1.1368945719       -6.2551103358
 H        -8.1544873460       -1.3655856103       -7.8675412480
 H        -7.4387526279       -1.4249701935       -6.1859921569
 H        -3.6067173110       -1.7264612038       -9.1252403798
 H        -2.7901238072       -1.3728248279       -7.6015509664
 H        -2.0123536740        0.4824163715       -9.9454357460
 H        -1.4283358071       -1.1567771156      -10.0907597157
 H         0.3292350976       -3.2230259624       -7.6120280955
 H         1.0932189140       -2.0027872241       -6.4831655422
 H         1.9960662518       -4.1086988559       -6.1862971532
 H         3.2528205355       -3.0974289117       -6.6410473453
 H         4.7971806579       -6.9165147437       -6.0806912302
 H         6.0164580625       -6.4338716456       -7.2947523191
 H         6.1611646669       -8.5391450522       -6.2048551628
 H         6.0664365896       -8.7877647058       -7.9532710846
 H         1.4525879663      -10.2865775572       -7.4715243452
 H         1.2927705991      -11.9844593353       -7.0736841218
 H        -0.1675621341      -11.8168535421       -8.7928275613
 H         1.2349902725      -12.4815323945       -9.5753402072
 H        -0.6476669407       -7.8403367515      -12.4408239393
 H        -0.5405213242       -9.0196288867      -13.8364932501
 H        -0.1377861371       -7.1198577939      -14.8677298354
 H         1.4410752889       -7.6246806790      -14.5473792793
 H        -1.9636357316       -5.1181842937      -13.8279671552
 H        -1.7930566298       -4.6207402427      -15.4550803792
 H        -2.6794550782       -2.5123831140      -14.8945194673
 H        -2.9485685956       -2.9074213952      -13.2464070333
 H        -7.2345018981       -3.7272706514      -16.0871940316
 H        -6.2832792373       -3.8159690505      -17.4666041579
 H        -8.0378436463       -2.8006960269      -18.5587085277
 H        -6.9575905618       -1.3385228684      -18.0764032298
 H        -8.7814046438        1.9087341026      -20.3038373585
 H        -9.5362999399        2.5584782244      -19.0477431751
 H       -10.3610056245        1.2052362929      -19.8502711846
 H        -9.9702454619       -2.1204293032      -19.3581434883
 H       -11.0507139290       -0.7585221895      -19.4406833066
 H       -11.2295562282       -1.8758724680      -18.1854970565
 H       -10.2042959640        0.6659767173      -15.8634770245
 H       -11.0017401721       -0.7168543733      -16.0266905684
 H       -11.4935129268        0.5190969447      -17.0444723907
 H        -7.4738880880       -2.2067881419      -13.9894960761
 H        -6.3932876166       -2.7228292805      -12.5778880663
 H        -7.0864676761       -3.8699580100      -13.7438342340
 H        -4.3542593374       -0.6205975360      -14.8867393660
 H        -4.0905089295       -1.2625329881      -13.2778562476
 H        -5.6579670633       -0.6199534021      -13.7358247664
 H         1.8946999111       -2.7964098161      -13.9608175537
 H         2.9718613907       -4.2662346528      -14.1973445394
 H         2.2841718046       -3.9853964481      -12.6370251513
 H         0.4195962381       -4.0930307584      -16.2755443635
 H         0.7750258590       -5.8494808793      -16.1117920464
 H         2.0660061429       -4.6997548051      -16.1302309149
 H         1.8089827517      -11.6543001168      -13.0276920095
 H         1.1795695651      -12.5044516254      -11.6610577373
 H         2.4826684370      -11.3764148711      -11.4021143861
 H        -0.9174683442      -11.2782359289      -13.0349511244
 H        -1.8250708187      -10.6220291358      -11.8095614455
 H        -0.8875389720      -12.0414815969      -11.5490536976
 H         6.4242965210      -11.0542451438       -7.0401965804
 H         5.7720268943      -11.4502768497       -8.6834359639
 H         5.5711731938      -12.5879553453       -7.3480316580
 H         4.6996640205      -11.3969707433       -5.0125823862
 H         3.6537065384      -12.5495855362       -5.8136512888
 H         2.9190466651      -11.0716178201       -5.2701618502
 H         4.8951301704       -5.8261466367      -10.6087878150
 H         4.6462661622       -4.0710556943      -10.6576442459
 H         3.2480760850       -5.0659742226      -10.7759911735
 H         5.8018748851       -4.1917860473       -7.3374645071
 H         4.9475205147       -2.9388852965       -8.2524820504
 H         5.9671492916       -4.0352174300       -9.1646267748
 H         0.1613491301       -0.4330663986      -10.8821349913
 H         1.9088860099       -0.2470802223      -10.7792043288
 H         0.9228665730        1.2003532373      -10.6230469850
 H         2.6415402156        1.0496153617       -8.5977793202
 H         2.3161063189        0.0257761285       -7.1664178364
 H         1.1954657613        1.5287428234       -7.5013116095
 H        -5.1513571501        1.1670344378       -5.1062125001
 H        -5.3251762311        2.2034701142       -6.5804880973
 H        -3.7944367852        1.5517177035       -6.0627537199
 H        -5.4442003146       -1.1083213871       -5.1435885776
 H        -3.8848815235       -1.3304701277       -5.8351324761
 H        -5.3148291025       -2.1338160669       -6.5759385255
 H       -10.4124330280        1.5071647946       -2.0977152461
 H        -8.6306326846        1.6703313201       -2.5979853018
 H        -9.3733738844        0.1082712240       -2.2418430524
 H       -12.2667565954        0.7254516953       -4.0336615278
 H       -11.3890435616       -0.6663084081       -3.8044688937
 H       -11.4809922249       -0.0155206171       -5.5101583806
 H        -6.4454453570        7.9536472852       -6.2475039347
 H        -7.3260229928        7.7863656785       -4.8181421081
 H        -8.1731980788        8.4489425657       -6.3461439417
 H        -9.4810569959        5.6950296581       -7.8019675788
 H        -8.4186921712        6.8749775401       -8.4443732753
 H        -9.7086929112        7.3013875018       -7.5290653417
 H        -0.4996205014        6.0131844416       -8.0068939979
 H        -0.7228674358        5.4600668827       -9.6669830149
 H        -1.3661077423        4.5381570940       -8.2705768249
 H        -2.9809281326        8.4010775959       -9.0322067117
 H        -1.4836847426        7.8051806281       -9.7324262131
 H        -1.6067192090        8.0469229213       -8.0660837028
 H        -6.4244184182        5.2793902292      -14.3442555402
 H        -7.0428351119        6.8185265591      -13.9588932091
 H        -8.2008985553        5.5132520791      -14.2255135278
 H        -8.8999907377        6.4814484232      -12.0849954443
 H        -8.4635011121        5.8419077219      -10.6248864342
 H        -9.2819143820        4.8026377085      -12.0392871101
 Na       -5.8862728777        3.0215345460       -9.3228153810
 Na        1.8759765175       -7.0360119843      -10.3280444443
