232

 C       -20.9207641655       -7.9542816078       -4.1697009237
 C       -20.6234306552       -6.4971794268       -3.9536670586
 O       -19.8666400190       -6.1736304947       -3.0368693561
 C       -21.3443246224       -5.3423703212       -4.7213490146
 C       -20.4910983744       -4.0225075141       -4.5298226380
 O       -20.1596951853       -3.5768761156       -3.4699582503
 C       -19.9435056252       -3.2492892020       -5.7824421365
 C       -18.7242736769       -3.7882707259       -6.5069702352
 C       -17.6022081468       -4.2314832047       -5.4656887661
 O       -17.7234639260       -5.2423782597       -4.7841123728
 C       -16.3816568784       -3.3135519908       -5.1909307959
 C       -16.1543932527       -3.3619803211       -3.5976049881
 O       -17.0832562081       -2.9928412355       -2.9210471963
 C       -14.8948434927       -3.8308003366       -2.9948052827
 C       -14.7977628542       -3.3520796534       -1.5272147048
 C       -15.4791113887       -4.4072565755       -0.5790401130
 O       -16.5090272890       -4.9905992571       -0.9185697268
 C       -14.8358630842       -4.5104964890        0.8698873205
 C       -13.3980011786       -5.2206890287        0.7464962204
 O       -12.4788465974       -4.7669183130        1.3903650677
 C       -13.2982051551       -6.4310189510       -0.2087651414
 C       -12.2125819554       -6.1622458717       -1.3341690667
 C       -12.4358895541       -6.9766239772       -2.6192615419
 O       -13.2917781114       -6.5714972606       -3.4132609933
 C       -11.6070449977       -8.1606347195       -2.9532122424
 C       -10.1403371717       -7.6886404454       -3.0667987736
 O        -9.5496341698       -7.3703591689       -2.0242443185
 C        -9.3044339940       -7.6494011802       -4.3914972380
 C        -7.8418993860       -7.1585621432       -4.0699741009
 C        -7.7981652487       -5.6425190862       -3.9536347591
 O        -8.8380837487       -4.9917428621       -3.6860634864
 C        -6.4174825135       -4.9065289950       -3.9127799563
 C        -5.4190804010       -5.1961533915       -5.0897871283
 O        -5.4216823621       -6.3232247311       -5.5523675932
 C        -4.3549781725       -4.1817706867       -5.7159605406
 C        -3.2370802249       -4.9784736934       -6.3846027113
 C        -2.1981904665       -3.9172724951       -7.0422712889
 O        -2.5648851589       -2.8178642663       -7.3074651666
 C        -0.6564084581       -4.2078346229       -7.0008246876
 C        -0.2171654565       -5.2772844721       -8.1220018040
 O         0.9519741004       -5.5960085193       -8.1002982543
 C        -1.0847498899       -5.4976321459       -9.3319627947
 C        -0.2859831141       -6.0832386655      -10.5012107520
 C         0.6901132904       -5.0513376565      -11.2792610746
 O         0.5385013244       -3.8404119311      -11.1840977390
 C         2.0240870314       -5.5733067709      -12.0172321052
 C         2.3223389452       -4.6254085755      -13.3021693446
 O         2.5567812118       -5.0946060442      -14.4077996419
 C         2.3340558328       -3.0718820363      -13.1157425189
 C         2.7835681790       -2.4381292577      -14.4903509978
 C         3.0641745705       -0.9014973103      -14.4402680999
 O         2.4497227025       -0.2008620857      -15.2600221562
 C         4.0640626348       -0.2330132307      -13.3548540398
 C         4.3059539858        1.2360143670      -14.0287711502
 O         5.2962331719        1.2989267788      -14.7247372491
 C         3.4200887541        2.4384648469      -13.6868041254
 C         4.2197351346        3.3908494457      -12.6709389195
 C         5.4983889653        4.0789498198      -13.3055488740
 O         5.6465292580        4.0008731111      -14.5107246918
 C         6.3498097701        5.0721309815      -12.5081687616
 C         6.3945818445        6.2857325051      -13.5920719978
 O         5.3831412788        6.8669105426      -13.8469350944
 C         7.6889462895        6.6847028642      -14.2560582214
 C         7.4990637976        7.1859730009      -15.7205818247
 C         7.1831903714        6.1141812491      -16.8288906803
 O         7.4154119243        4.9456089106      -16.6354993409
 C         6.5004252172        6.4811932549      -18.1575412096
 C         7.5715043069        6.1778970129      -19.1806853662
 O         7.8725352173        4.9914418195      -19.2653326073
 C         8.1154311213        7.2543833162      -20.1180723040
 C         8.9575742356        6.5546887094      -21.1879176005
 C         8.1989793033        5.6060427375      -22.1662059170
 O         7.3299313412        5.9597384517      -22.9397090811
 C         9.0717966597        4.1962309648      -22.5800722044
 C         8.9054515812        3.2154587818      -21.2508850222
 O         7.8406750573        2.5981955414      -21.1703948901
 C         9.9488865093        3.0076174691      -20.2136373844
 C         9.7497128510        1.6459735057      -19.5493364466
 C         8.4327523997        1.5256761969      -18.7569683623
 O         8.1788637223        2.3341278099      -17.8954175083
 C         7.3834400837        0.4091284501      -18.9992348623
 C         5.8192199542        1.0914547105      -19.3823834197
 O         5.3535757299        1.6749469152      -18.4504417383
 C         5.3086304030        0.8471105077      -20.7086837382
 C         7.6457623593       -0.6642047550      -20.1090055013
 C         7.1517499426       -0.3736262127      -17.7668035680
 C         8.3140559385        3.5868678954      -23.8322302421
 C        10.4628676475        4.4483819483      -23.0259140456
 C         5.2908472923        5.4274629246      -18.3250937527
 C         5.9817761648        7.9095962018      -18.1765579690
 C         5.7353742212        5.7183888124      -11.2508444421
 C         7.7224112265        4.5230295784      -12.1677262683
 C         3.3181995427       -0.1109713008      -11.9599495569
 C         5.3148282518       -1.0944009107      -13.3771532987
 C         3.1612001293       -5.3449916247      -10.9885853426
 C         1.8789955390       -7.0878438577      -12.4712673631
 C        -0.0143153313       -2.8994778331       -7.5564218935
 C        -0.1134027923       -4.4893067712       -5.5671398348
 C        -6.6247421823       -3.4532435939       -3.6348111098
 C        -5.7025130901       -5.5593529690       -2.6274824277
 C       -11.7000416239       -9.1020157192       -1.7108243936
 C       -11.9158830085       -8.7434260771       -4.3375184709
 C       -14.7047110995       -3.2086540948        1.6829489759
 C       -15.6827424706       -5.5563370641        1.7673793889
 C       -15.1450312534       -3.6245266638       -5.9709901062
 C       -16.7362072650       -1.8678376537       -5.5318057329
 C       -21.5183555753       -5.5920014138       -6.2100107601
 C       -22.7623198088       -5.2863867447       -4.0512654102
 H       -21.3632129968       -8.3526628744       -3.1978213851
 H       -19.9951617168       -8.3912724421       -4.4625108116
 H       -21.5752593054       -8.0609592055       -5.0010364201
 H       -19.6125874042       -2.2337694134       -5.3929248677
 H       -20.7127587512       -3.1081452067       -6.5621509749
 H       -18.3657240455       -3.1135182164       -7.2675995563
 H       -19.0418868695       -4.6748094774       -7.1133239174
 H       -14.0651634657       -3.4081204689       -3.5628687230
 H       -14.9744248887       -4.8863371313       -3.1707801060
 H       -15.2649445692       -2.3287895206       -1.3552763035
 H       -13.8417903033       -3.3304798203       -1.1472921360
 H       -14.2066797355       -6.5802109119       -0.7487308797
 H       -13.1275647237       -7.3624475354        0.3400308516
 H       -11.1270401260       -6.2183620222       -0.9430983974
 H       -12.3989208832       -5.1427439870       -1.6890828998
 H        -9.8302319115       -6.9923879884       -5.1406774139
 H        -9.1131204658       -8.6001284626       -4.9492453923
 H        -7.1560163710       -7.4844772576       -4.8763387017
 H        -7.5560201396       -7.7778209460       -3.1327132587
 H        -3.9690788325       -3.6003105907       -4.8871123878
 H        -4.8415072951       -3.5209060341       -6.4128222511
 H        -3.5815056146       -5.6129282085       -7.1877112969
 H        -2.8661516854       -5.6776634186       -5.6143146144
 H        -1.5293555561       -4.5648415572       -9.6964165506
 H        -1.9929986784       -6.1080029835       -9.0852358779
 H        -0.9834498438       -6.4198785441      -11.3287755841
 H         0.2453846178       -7.0081527780      -10.1821845880
 H         2.9862853575       -2.8479971392      -12.2205397717
 H         1.3413658220       -2.6741875098      -12.8938101302
 H         2.0149890780       -2.7161987369      -15.1957386444
 H         3.6419934506       -3.0036135111      -14.7665197738
 H         2.4929968466        2.0542403830      -13.2098570940
 H         3.3064225840        3.0856564439      -14.6228280213
 H         4.5611691004        2.7567903925      -11.8729753414
 H         3.5237689405        4.0733944497      -12.2219008401
 H         8.5139305663        5.9288768939      -14.3328222195
 H         8.0982646366        7.5094561699      -13.6437743383
 H         8.3942076346        7.8354088011      -16.1306410256
 H         6.5485868676        7.8403448023      -15.6796008402
 H         8.6394019462        8.0524367767      -19.5233535648
 H         7.2598177633        7.8233853299      -20.6407582282
 H         9.8444328809        6.0698748655      -20.7348631098
 H         9.4118338356        7.2647501755      -21.8456005813
 H        10.0463759528        3.8446362598      -19.4704642560
 H        10.9355270939        3.2020694575      -20.7133113857
 H        10.6259249736        1.6588062920      -18.8330635585
 H         9.9091683589        0.9443511374      -20.3378878735
 H         4.2572350642        0.4131456447      -20.6004971869
 H         6.0234606170        0.3519740037      -21.3443563026
 H         5.1765630491        1.7537927775      -21.2395922330
 H         6.8216623118       -1.0923163611      -20.6111723694
 H         8.1287565309       -1.5447880952      -19.7386266317
 H         8.3060443927       -0.4096396083      -20.9102315245
 H         8.1437993119       -0.7829951683      -17.4226098818
 H         6.3894329736       -1.1255585147      -17.8644854944
 H         6.9117453788        0.2332956027      -16.9423782846
 H         9.1009723392        3.0883184872      -24.4645073531
 H         8.0411463873        4.4396654192      -24.4755871175
 H         7.4272250828        3.1138544841      -23.6055627362
 H        11.0318835716        3.4880186829      -23.2314203518
 H        11.0324639255        4.9486468534      -22.1711349945
 H        10.4027033736        4.9062822834      -24.0351098951
 H         4.7144212307        5.5894629070      -17.4157382503
 H         5.5685839270        4.3702178056      -18.3381316341
 H         4.7593163062        5.7269903697      -19.1899218102
 H         6.7147757673        8.6589102763      -17.9364071731
 H         5.1213825224        8.0375811369      -17.4453742457
 H         5.5480324335        8.1178248277      -19.1372902607
 H         6.3146103075        6.4965899435      -10.7282975020
 H         5.5175497698        4.9803267856      -10.5031673003
 H         4.7289033684        6.0407454401      -11.4057221192
 H         7.7613338437        4.0658773432      -11.1417365051
 H         8.5216238858        5.2895545462      -12.2206476883
 H         8.0693666052        3.8700329839      -12.8907982412
 H         3.9445060046        0.5737604920      -11.4295020786
 H         3.3963026611       -1.0505169324      -11.4992468772
 H         2.3339345373        0.3028389376      -11.9603416714
 H         4.9175682634       -2.0672513089      -13.2456401941
 H         5.9450991833       -0.6576771142      -12.5415417503
 H         5.8671733587       -0.8622571798      -14.2605353485
 H         2.9143435497       -5.8066453336      -10.0843874879
 H         3.3025572642       -4.2574236315      -10.7964547780
 H         4.0901130866       -5.7217034458      -11.3958966841
 H         1.4583955198       -7.2772649860      -13.4198676918
 H         1.2077904491       -7.5575598891      -11.7395098886
 H         2.8340566906       -7.6582819403      -12.3596574906
 H        -0.4341536092       -2.0690426238       -7.0675288197
 H        -0.2301406666       -2.7958367371       -8.6137710727
 H         1.0743713632       -2.9852991355       -7.3755546316
 H        -0.4423427386       -5.4284829486       -5.1093849122
 H        -0.5123123245       -3.7613815493       -4.8864818811
 H         0.9901071277       -4.5108480685       -5.5611229209
 H        -6.8780964690       -2.9279833890       -4.5717315590
 H        -5.6605691231       -2.9569115189       -3.3496110682
 H        -7.4934959655       -3.2780338422       -2.9052691869
 H        -6.4291421486       -5.5276930818       -1.8127233657
 H        -4.8289941368       -4.9751072141       -2.3319487656
 H        -5.4526877540       -6.5639684010       -2.8658841457
 H       -12.7573871124       -9.2197054064       -1.3712758353
 H       -11.2237514602       -8.5276237374       -0.8830133970
 H       -11.2025519734      -10.0705376724       -1.7546903139
 H       -12.9665921677       -8.8628583252       -4.5089654190
 H       -11.4250014766       -9.7102820247       -4.5218124491
 H       -11.7027592444       -8.0250292668       -5.2178457148
 H       -14.4263541260       -2.3550691340        1.0711666203
 H       -14.0278726779       -3.4043252648        2.4799593617
 H       -15.6347112882       -3.0081437968        2.2604105546
 H       -15.8748361099       -6.4769684798        1.1691826919
 H       -16.6492223144       -5.1152505351        2.1133715750
 H       -15.1252258415       -5.8625574639        2.7059732994
 H       -15.2114287732       -4.6234712524       -6.2871686697
 H       -14.1872199122       -3.5413166938       -5.3561134420
 H       -15.0287220300       -3.0207625014       -6.8285724053
 H       -17.3840463478       -1.3956313395       -4.8873035680
 H       -17.3081868585       -1.7969629618       -6.4921033405
 H       -15.7747918473       -1.3105497051       -5.4311638513
 H       -20.5502368418       -5.9204658929       -6.5299975040
 H       -21.8368214309       -4.6054877833       -6.6607072442
 H       -22.2976864130       -6.3013779795       -6.3674026503
 H       -23.4775098184       -4.5064603964       -4.4187575667
 H       -22.5938410795       -5.0336035573       -3.0260690820
 H       -23.1658219413       -6.2353716767       -4.1569725111
 Na      -18.6211945616       -4.6053418911       -2.1596186828
 Na        6.3663808333        2.7969983802      -16.4531636762
