232

 C        -8.3423210085        2.9495018685      -13.3926316456
 C        -7.4441586933        3.4497728576      -12.3039418112
 O        -7.0108549841        2.7778894187      -11.3951222031
 C        -7.0826828708        5.0576425468      -12.3447298579
 C        -5.9762529078        5.2117590343      -11.3544087096
 O        -6.2998763913        5.4597780770      -10.2201341755
 C        -4.5127665707        5.0805814461      -11.7339207876
 C        -3.4116890993        5.8316672936      -11.0358431862
 C        -3.0341144351        5.3029560847       -9.6838092149
 O        -3.4843282517        4.2174031891       -9.3550556583
 C        -2.0573005425        5.9816536168       -8.6884723659
 C        -2.7191719219        6.0474355305       -7.2469038513
 O        -2.0844677416        5.8733956607       -6.2823583697
 C        -4.2744320932        6.4715571959       -7.2185791280
 C        -5.1833865966        5.5679291122       -6.3143991988
 C        -6.5935835216        5.5513748149       -6.8409261017
 O        -7.0726981869        4.6892636141       -7.5968883499
 C        -7.7490469283        6.5479066263       -6.3799593997
 C        -8.4846405631        5.7616249169       -5.0947982501
 O        -8.0766355368        5.8621245099       -3.9877040731
 C        -9.6893573411        4.7385201798       -5.5075786541
 C        -9.9710423571        3.7066682066       -4.4259386159
 C       -10.1776769448        2.3065265122       -5.1125198875
 O       -10.4851568355        2.3326517761       -6.2818028619
 C        -9.9574006978        0.9777405790       -4.3567843419
 C        -8.8560343617        0.1789396864       -5.0836123391
 O        -7.8693186379       -0.1438048177       -4.4537837602
 C        -8.9976408913       -0.1547390283       -6.5300340604
 C        -7.7296375416       -0.7323310486       -7.1573757097
 C        -6.7115419087        0.3594093209       -7.4786596107
 O        -7.0024342846        1.2564215282       -8.1786169446
 C        -5.2698787664        0.2365671295       -6.8302829195
 C        -4.3817033148        0.3289754257       -8.0650426329
 O        -4.3434832370        1.3259734353       -8.7543679986
 C        -3.4636021826       -0.8997708272       -8.3611209907
 C        -2.2934929902       -0.4728999655       -9.2904573695
 C        -0.8445350353       -0.2770108712       -8.4518661868
 O        -0.9407505707       -0.3392998921       -7.2071744770
 C         0.4933997776       -0.0216976958       -9.2319592961
 C         1.3818655690       -1.2788908105       -9.2036448272
 O         2.2555592578       -1.3569622513       -9.9861901509
 C         1.0889958950       -2.2554223712       -8.0882485855
 C         2.3707600260       -3.0622704686       -7.7294957969
 C         2.5135003547       -4.4355232137       -8.5130447223
 O         1.5045347587       -5.1480645598       -8.5652718484
 C         3.8707647256       -5.0121280034       -8.9492223787
 C         3.9870099444       -6.5343867619       -8.5445095877
 O         3.4711760748       -7.3807556976       -9.2633594773
 C         4.9800930969       -7.0144316842       -7.3404816748
 C         5.3681678570       -8.5306221778       -7.3180993364
 C         4.2695442248       -9.4364765981       -6.6847924335
 O         3.5140176614       -9.0008585399       -5.8658877014
 C         4.2393374158      -10.9805303260       -7.1387490196
 C         3.1632739756      -11.2223503409       -8.2330368619
 O         3.4928073115      -11.5989613838       -9.3343587343
 C         1.7321998162      -11.1726015378       -7.8191296832
 C         0.8304349245      -11.4492923302       -9.0026404173
 C         0.6305149654      -10.1428775218       -9.8673540724
 O         0.6035955152       -9.0695411344       -9.3008419484
 C         0.4181602752      -10.3870628941      -11.5075241063
 C         0.8759557121       -9.1283850260      -12.2084188669
 O         1.9854057747       -8.6489198014      -12.0101422226
 C        -0.1550609449       -8.5401478545      -13.2094605501
 C         0.4628612072       -7.6249308474      -14.2475699629
 C         0.8288988989       -6.2419628785      -13.4805795506
 O         1.0264933856       -6.0474745420      -12.2881734959
 C         1.0531240844       -4.9135958616      -14.3095907683
 C        -0.1384694224       -3.8692834815      -13.8055755630
 O        -0.0050844865       -3.1053659646      -12.8767540456
 C        -1.5269227085       -4.2462904913      -14.3940754319
 C        -2.6596346558       -3.1255474807      -14.2737773390
 C        -4.0885488182       -3.7057405487      -14.0484518862
 O        -4.2470392172       -4.8718024584      -13.7696967749
 C        -5.3117229394       -2.7352571768      -14.1498059177
 C        -5.6036551985       -2.5358906087      -15.6272844895
 O        -4.8507747157       -1.7919843252      -16.2448926361
 C        -6.7445958195       -3.3022722298      -16.4333886276
 C        -7.5345154749       -2.3628793600      -17.4144794373
 C        -8.4838537837       -1.3511183764      -16.6937943446
 O        -8.2873882950       -0.9639534135      -15.5769940019
 C        -9.6791509401       -0.5850208894      -17.5496989536
 C        -9.0005643498        0.4198615590      -18.6543398896
 O        -7.8120295966        0.5460496071      -18.6956756983
 C        -9.8763507021        1.1148988541      -19.7750700597
 C       -10.5969065262       -1.5339543329      -18.3618405645
 C       -10.4588310520        0.2261348766      -16.5540283428
 C        -6.4317662754       -3.3878872569      -13.3857976084
 C        -4.8511739319       -1.3835878213      -13.5476508072
 C         2.3007367871       -4.1697736224      -13.7631869526
 C         1.2093873463       -5.0317514398      -15.8320662123
 C         1.3411471895      -11.4834912816      -12.0321867756
 C        -1.0894986730      -10.7538416379      -11.6765114150
 C         5.5486950684      -11.4989159802       -7.6891410084
 C         3.8638634195      -11.7841454427       -5.8804987397
 C         3.9899702816       -4.7171547273      -10.4478773802
 C         5.0094953489       -4.2604881428       -8.0932375528
 C         0.1913896166        0.3002867929      -10.6667396834
 C         1.2056317719        1.0868523973       -8.4232100408
 C        -5.1514388134        1.4999293689       -5.9887847905
 C        -5.1652715136       -1.0195388202       -5.9491861178
 C        -9.4724757215        1.1726119867       -2.8239548094
 C       -11.1686697021        0.0686850860       -4.4694033638
 C        -7.1065920663        7.9224371058       -5.7874209564
 C        -8.5638038849        6.8144608634       -7.5987879595
 C        -0.7027558079        5.3142309687       -8.9566636285
 C        -1.9403455564        7.4941883812       -9.0831326813
 C        -6.6210343006        5.4636391406      -13.7873350241
 C        -8.3927896777        5.8522209223      -11.8684283083
 H        -8.4221615408        3.5334187454      -14.3309414377
 H        -9.3283182485        2.8275417090      -12.9838707760
 H        -8.0426181982        1.9906727643      -13.7628091293
 H        -4.3154128653        5.2194888769      -12.7758174431
 H        -4.3465423775        3.9843729405      -11.7631465686
 H        -3.6555246153        6.9281993770      -10.9221517546
 H        -2.6583561587        5.8386115653      -11.7335017208
 H        -4.6310439314        6.4751750129       -8.2512282275
 H        -4.3891384916        7.4708405420       -6.9263063915
 H        -5.2157304687        6.1349611524       -5.3297541827
 H        -4.8686373789        4.5165561037       -6.1701462118
 H        -9.2082940929        4.3206749094       -6.4794073578
 H       -10.5294803675        5.3426916197       -5.6692407929
 H       -10.8958673952        3.9495064731       -3.9295535478
 H        -9.1426227216        3.8181342889       -3.6967552131
 H        -9.2135714039        0.7112460707       -7.2182630276
 H        -9.7588950066       -1.0098258272       -6.6315255885
 H        -7.9826096947       -1.1998648609       -8.1216822616
 H        -7.4043836829       -1.5102557318       -6.4446438145
 H        -4.0234846220       -1.7484105329       -8.8683212762
 H        -3.1814686473       -1.2510735676       -7.4228803737
 H        -2.5116314287        0.5350043063       -9.7975474511
 H        -2.1455314244       -1.2335965285      -10.1031674047
 H         0.3043951731       -2.9281145956       -8.5251006438
 H         0.7294292396       -1.6765133317       -7.3246934037
 H         2.2588870505       -3.4801220343       -6.7339258199
 H         3.2520859690       -2.4525442614       -7.6551175006
 H         4.3701146895       -6.8538261560       -6.4636179646
 H         5.8344083993       -6.3902974561       -7.1367652688
 H         6.3673955608       -8.6908405270       -6.8185975653
 H         5.5390011912       -8.8315433504       -8.4057325568
 H         1.3009395821      -10.2914577435       -7.4185903014
 H         1.5449964477      -12.0660127149       -7.2128639960
 H        -0.1503219401      -11.8646149381       -8.7662889191
 H         1.3259281408      -12.1693019324       -9.6591062426
 H        -0.8709874760       -7.8304951238      -12.7179923329
 H        -0.7322163572       -9.3475299890      -13.7282485481
 H        -0.1286551928       -7.2674599318      -15.0676136473
 H         1.4051680280       -7.9826265479      -14.6029034127
 H        -1.8609359981       -5.2362508169      -14.0474121120
 H        -1.3809471495       -4.4437727563      -15.4204581036
 H        -2.4674711277       -2.4807565320      -15.1507646349
 H        -2.3811397337       -2.5856343163      -13.4037735502
 H        -7.4413265327       -3.8535997393      -15.8218005820
 H        -6.1513218935       -3.9213137201      -17.0448058327
 H        -8.2006608733       -2.9958313810      -18.1105177643
 H        -6.8321394336       -1.8353649949      -18.1727376261
 H        -9.4422649180        1.1835506707      -20.7491901370
 H       -10.1382668110        2.1832740010      -19.5451762876
 H       -10.8172011589        0.5888178529      -19.8793554136
 H       -10.1576541638       -1.8770690697      -19.3088355262
 H       -11.5093881858       -1.0803913909      -18.6784180669
 H       -10.7879455523       -2.4963577877      -17.9076597701
 H        -9.8982981183        0.9710345085      -16.0217438380
 H       -10.9657411667       -0.3689380483      -15.8199555529
 H       -11.2883698027        0.8468898591      -16.9912467368
 H        -7.3445972082       -2.8329347769      -13.5284234208
 H        -6.1487684047       -3.3853893271      -12.2827747880
 H        -6.5486301320       -4.4533178666      -13.5838417631
 H        -4.1853308694       -0.9691462696      -14.2309189467
 H        -4.4602868495       -1.6046737117      -12.5589732914
 H        -5.6671148487       -0.7503644027      -13.3337334690
 H         2.6462164289       -3.3507566693      -14.4164069689
 H         3.1594054031       -4.8170182042      -13.5350710483
 H         1.9278673322       -3.7272985693      -12.8450442381
 H         1.3970738735       -4.0741885056      -16.3103290974
 H         0.2877519516       -5.4702115982      -16.2900358152
 H         1.9846214190       -5.7799145340      -16.1434297695
 H         1.0588094736      -11.6845312151      -12.9905934550
 H         1.3184079887      -12.3314246287      -11.3638209307
 H         2.2921516592      -11.0456930956      -12.1216353464
 H        -1.4142450130      -10.9422292212      -12.6853877815
 H        -1.7153377038       -9.9347908239      -11.3567177639
 H        -1.4109099563      -11.6080267585      -11.1279323540
 H         6.3320864543      -11.1080742319       -7.0846979536
 H         5.5527061581      -11.1767257594       -8.6856520450
 H         5.6755804150      -12.5883131643       -7.7104866544
 H         4.6886111320      -12.0288275628       -5.2888403890
 H         3.4337480918      -12.7680980587       -6.1710401422
 H         3.1973201801      -11.2229817781       -5.2686873004
 H         5.0280366094       -4.9518038314      -10.7112724942
 H         3.7575372221       -3.6487948864      -10.6229427049
 H         3.4400750241       -5.3942576412      -11.0766135962
 H         5.0493871562       -4.6875265691       -7.0874927083
 H         4.7675280179       -3.2186922313       -7.8309844437
 H         5.9168083473       -4.5454350803       -8.6364746541
 H        -0.2663402068       -0.5772431658      -11.1603371715
 H         1.1160533442        0.4324599078      -11.3014675106
 H        -0.3969295818        1.2195358344      -10.7421316366
 H         2.3673017036        0.9991949825       -8.4670619174
 H         0.6778817428        1.1436479767       -7.5362633337
 H         1.0146416432        2.1072670306       -8.9084725638
 H        -6.0007750824        1.5890144693       -5.3337852537
 H        -5.0349011651        2.4035541510       -6.6118414798
 H        -4.2191274434        1.5147271075       -5.4093255633
 H        -5.8568001488       -1.1019599036       -5.1114048242
 H        -4.1309711128       -0.9877156419       -5.6238959970
 H        -5.1480978069       -1.8933429548       -6.6074889217
 H       -10.3171482537        1.6889274719       -2.3413456141
 H        -8.4872878042        1.6851836411       -2.7334121765
 H        -9.4121401880        0.1681975440       -2.4693993762
 H       -12.0949412045        0.4901111773       -4.0297108952
 H       -10.8254575953       -0.8892782010       -4.0050349067
 H       -11.4068674787       -0.0899710749       -5.5110690914
 H        -7.7438234106        8.6527060897       -6.3163938066
 H        -6.0522212487        7.9591841623       -5.9150780892
 H        -7.2856321016        7.9411786950       -4.7169712289
 H        -9.1560186124        6.0268063495       -7.9343588302
 H        -7.9588997354        6.9321190310       -8.4249793306
 H        -9.2551764518        7.6023095481       -7.5565799662
 H         0.1013442268        5.8546831101       -8.4456142543
 H        -0.5941279811        5.4198957053      -10.0480261966
 H        -0.6807994046        4.2491894317       -8.7948797962
 H        -2.9338397307        8.0328505423       -9.0790870840
 H        -1.5354517725        7.5518373452      -10.0417283085
 H        -1.3811151074        8.1308317860       -8.3821455630
 H        -5.7556243913        4.9560147019      -14.2119038510
 H        -6.3950374373        6.5361801518      -13.8556501911
 H        -7.4449536192        5.2213657637      -14.4381561904
 H        -7.9905257418        6.3170057414      -10.9499125986
 H        -9.2595161962        5.1246148067      -11.7635535521
 H        -8.6585809069        6.6267874302      -12.5105794281
 Na       -5.8455127261        3.2584291027       -9.0063433931
 Na        1.3676863593       -6.8418330834      -10.2138501346
