232

 C        -8.4280931979        2.9369126730      -13.2336294925
 C        -7.4194951501        3.5444823188      -12.2481893096
 O        -6.9222978327        2.8179571134      -11.3540183743
 C        -7.0434231076        5.0294406824      -12.3805460886
 C        -5.8885592788        5.3337551352      -11.2449207352
 O        -6.2274814417        5.4386497917      -10.0843465150
 C        -4.4536249715        4.9944956053      -11.7363870527
 C        -3.4012355414        5.8071751156      -11.0441080582
 C        -3.0117955144        5.1435813581       -9.7082039143
 O        -3.3582601057        4.1068875038       -9.2441383750
 C        -2.0041817942        5.9494906433       -8.8218920896
 C        -2.6639555112        5.9268700707       -7.2891976736
 O        -2.0955822462        5.9016599836       -6.2017070173
 C        -4.1936570950        6.4039022699       -7.2582414975
 C        -5.2003913101        5.6494085018       -6.3404473251
 C        -6.6166586361        5.5371903332       -6.7998554151
 O        -6.9968528657        4.6122136157       -7.4814723228
 C        -7.7118735999        6.5890001545       -6.3600998913
 C        -8.4663681967        5.7999395014       -5.2619548302
 O        -8.0911903357        5.7915923838       -4.0726445693
 C        -9.5660524595        4.8438502746       -5.6565037179
 C        -9.8052178995        3.7595942430       -4.4981593372
 C       -10.1926091026        2.4243917649       -5.1464409417
 O       -10.6264476711        2.3598102394       -6.2784797881
 C        -9.9684570628        0.9565429676       -4.4323676630
 C        -8.7148774329        0.1640711290       -5.1852343057
 O        -7.7306864042       -0.2112870352       -4.5749677442
 C        -9.0392775487       -0.2572423349       -6.6182554390
 C        -7.7748487439       -0.8010932965       -7.3739175847
 C        -6.8148407432        0.3641152002       -7.4863511597
 O        -7.1045581833        1.3632967895       -8.1561411131
 C        -5.3252810865        0.2823217616       -6.7869060989
 C        -4.3470137333        0.3048569044       -7.9642846970
 O        -4.2889049125        1.3313418450       -8.7431702164
 C        -3.4801043315       -0.9334269447       -8.3582479909
 C        -2.3553447725       -0.4578336406       -9.2249618661
 C        -0.9938883374       -0.2798542567       -8.4868989133
 O        -0.8149949609       -0.5878893711       -7.2991341820
 C         0.2177513586        0.1133072013       -9.3065843568
 C         1.3098421481       -1.1897903401       -9.2319154885
 O         2.2400369700       -1.2667914843       -9.9744977253
 C         0.9771977374       -2.3740225072       -8.2315429419
 C         2.3116903342       -3.0960961767       -7.7966116534
 C         2.4862412096       -4.4349874405       -8.3923035018
 O         1.5854324427       -5.1201184646       -8.7431119304
 C         3.9907425740       -4.9779178576       -8.8191084156
 C         4.0734895127       -6.5602407324       -8.5937719891
 O         3.4047873921       -7.2813904204       -9.3017690548
 C         4.8075992148       -7.1032801283       -7.4407474600
 C         5.2540427142       -8.5307684512       -7.4952155760
 C         4.3531755869       -9.5069988622       -6.6973220558
 O         3.6508931112       -9.0524994603       -5.8312814601
 C         4.3318799752      -10.9862688629       -7.0975868531
 C         3.1311706326      -11.2209088851       -8.1788231468
 O         3.4732173475      -11.4480773200       -9.3076417613
 C         1.6232930036      -11.1754465458       -7.7651519451
 C         0.6809000883      -11.4476305300       -8.9481832309
 C         0.5556526444      -10.2132792595       -9.8937192746
 O         0.6332411034       -9.1180829452       -9.3623801010
 C         0.3507306546      -10.4360071199      -11.3703168199
 C         0.7507344436       -9.1169509090      -12.1174766267
 O         1.8740975863       -8.6992443670      -11.9057026476
 C        -0.1171159153       -8.4887754242      -13.1913792966
 C         0.4640537797       -7.4122464428      -14.1990486672
 C         0.8788131746       -6.1312744198      -13.5554362150
 O         0.8842906873       -6.2031354229      -12.3447623831
 C         0.9906744280       -4.7917937079      -14.2882080299
 C        -0.2273122129       -3.8882563905      -13.8328763137
 O        -0.0428451243       -3.0856258493      -12.9862963044
 C        -1.5591655703       -4.2153963884      -14.4563987167
 C        -2.6200612846       -3.0075381566      -14.3867248961
 C        -3.9736879230       -3.6444914742      -14.0534713098
 O        -4.0939595938       -4.8357881666      -13.7243236652
 C        -5.3244296695       -2.7382851033      -14.0591978676
 C        -5.6094263899       -2.4561243048      -15.6146331471
 O        -4.7545417385       -1.9329710791      -16.2580630549
 C        -6.8387108992       -3.1321579977      -16.3427281853
 C        -7.5243132318       -2.2740470816      -17.3749405528
 C        -8.3974051541       -1.2697593866      -16.7072159585
 O        -8.0614464710       -0.8560574846      -15.6075552376
 C        -9.6103240389       -0.6260523745      -17.4934894866
 C        -9.0076298603        0.2039391412      -18.6022548252
 O        -7.8084820948        0.4062886182      -18.6804352411
 C        -9.9074843465        0.9021269432      -19.6006364355
 C       -10.5296050749       -1.7253765675      -18.2310057541
 C       -10.5031737796        0.3097102778      -16.6095576950
 C        -6.5028407556       -3.4977159140      -13.3217486830
 C        -4.9423519293       -1.3896817593      -13.2561432277
 C         2.4605288325       -4.3229301995      -13.7936554865
 C         1.1119583561       -4.9423866517      -15.8438611669
 C         1.3726531853      -11.4550391286      -11.9484493290
 C        -1.1772135106      -10.6885028379      -11.5838944065
 C         5.6610324970      -11.5022535635       -7.6783310454
 C         3.8550365183      -11.8972620662       -5.7874057553
 C         4.0607127931       -4.7104931871      -10.3799680290
 C         5.1408287399       -4.1265476007       -8.1489505099
 C         0.0662074943        0.4486185606      -10.8238584275
 C         1.0955081300        1.2467244010       -8.5346472812
 C        -5.0695474074        1.6293650367       -5.9909593332
 C        -5.1678378238       -0.9172388900       -5.8683048703
 C        -9.5992930995        1.2300154826       -2.8803812900
 C       -11.2174205065        0.0242955050       -4.4021107708
 C        -7.0446180578        7.8913716554       -5.6519838463
 C        -8.5469681618        7.0001218213       -7.5652719384
 C        -0.6082544256        5.2311234819       -8.8687814789
 C        -1.9888488823        7.5348984672       -9.1755170276
 C        -6.7308735366        5.3132824319      -13.8999388618
 C        -8.3271727210        5.7808305515      -12.0031540217
 H        -8.6328996311        3.3067698440      -14.2614578672
 H        -9.3648536279        2.9935396194      -12.6152322436
 H        -8.2946373063        1.8630982525      -13.4138687597
 H        -4.3759543347        4.8914461839      -12.7956385177
 H        -4.3307352658        3.9305929468      -11.4971178218
 H        -3.6952116612        6.8671406783      -10.9217930096
 H        -2.4460706852        5.9382419449      -11.6616544008
 H        -4.5536246139        6.4555319913       -8.2712125248
 H        -4.1392173465        7.4398845503       -7.0082633506
 H        -5.1515731832        6.0874570258       -5.2695162449
 H        -4.8969172539        4.5565692907       -6.3414334482
 H        -9.2247335991        4.5133037091       -6.6829676015
 H       -10.3802390535        5.5441358073       -5.6630455259
 H       -10.5803799472        4.0893273355       -3.7962842140
 H        -8.8787942838        3.6742197785       -3.9460719943
 H        -9.3372705492        0.6041667349       -7.2571477135
 H        -9.7890660082       -1.0491894139       -6.5940715835
 H        -7.9748739237       -1.2008133905       -8.3307182595
 H        -7.3794595901       -1.6193470179       -6.7336022941
 H        -4.0808603752       -1.4727794468       -9.0274037763
 H        -3.3406279705       -1.5866169853       -7.4090640295
 H        -2.6363427272        0.5346738896       -9.7395160383
 H        -2.1285634054       -1.2006802574      -10.0528747101
 H         0.3153335122       -2.9047172769       -8.8694691729
 H         0.4686264463       -2.0081491238       -7.3773804940
 H         2.2833697068       -3.2242159361       -6.6816993281
 H         3.1997965923       -2.4606966743       -7.9552076919
 H         4.3312146760       -6.8971156584       -6.4916697445
 H         5.6413381935       -6.4500415706       -7.3550945796
 H         6.2893748024       -8.6302583637       -7.0995808570
 H         5.2895173047       -8.9058160594       -8.5762304587
 H         1.3390608200      -10.0736243178       -7.5505635435
 H         1.2550888038      -11.8445702324       -7.0410842150
 H        -0.2973060940      -11.8785801563       -8.5729712440
 H         1.0903063505      -12.1760830079       -9.5496078843
 H        -0.9689164034       -7.9140808608      -12.7713952592
 H        -0.5765248874       -9.3247367075      -13.8175187590
 H        -0.1674186813       -7.0853658767      -15.0209815380
 H         1.5650817187       -7.6050937115      -14.6244884572
 H        -1.9993533031       -5.0859008362      -13.8989935537
 H        -1.4931228110       -4.6838125589      -15.4486548104
 H        -2.5631233148       -2.4611145619      -15.3947084620
 H        -2.3250988294       -2.3438559824      -13.6425999277
 H        -7.5790578195       -3.4787182800      -15.5466476819
 H        -6.3452645363       -3.9407968008      -16.8910707185
 H        -7.9369117121       -2.8020440421      -18.3196960316
 H        -6.7468052940       -1.6437523920      -17.8119174502
 H        -9.3788066159        0.9243286865      -20.5927445094
 H       -10.0655970975        1.9538347858      -19.3939538525
 H       -10.8768015713        0.4827936311      -19.8209702448
 H       -10.1085536119       -2.4563789499      -18.9135072001
 H       -11.1821035601       -1.1621979417      -18.8865843832
 H       -11.1482866423       -2.3161652255      -17.6304528538
 H        -9.8888206788        0.9712904447      -16.0485077960
 H       -11.0983066424       -0.2328068052      -15.8960062168
 H       -11.1784535339        1.0885525668      -17.0528159268
 H        -7.4175842349       -2.8516562614      -13.4469008192
 H        -6.3345385202       -3.6447307140      -12.2461510197
 H        -6.6837602491       -4.5896813460      -13.6818410746
 H        -4.5033225597       -0.6502153955      -13.9052935302
 H        -4.3554983363       -1.6474046802      -12.4422111780
 H        -5.8230629800       -1.0299006735      -12.7291419766
 H         2.9658131442       -3.7045950269      -14.6107464010
 H         3.1163929788       -5.1819354630      -13.6980505895
 H         2.4082006420       -3.7293229502      -12.8883301900
 H         0.7739561625       -4.0654320347      -16.4660324411
 H         0.5117176329       -5.7692108237      -16.1443850274
 H         2.1630009741       -5.2673737674      -16.1966535543
 H         1.2881004559      -11.4370076205      -13.0133856305
 H         1.2706246801      -12.4195990189      -11.4429087736
 H         2.3166532241      -11.0209879019      -11.7515571487
 H        -1.4386026482      -10.6077654934      -12.6796660886
 H        -1.8779712364       -9.9978635750      -11.0985217189
 H        -1.5052178445      -11.7142850158      -11.3212520031
 H         6.4815338938      -11.1837620642       -7.0339781280
 H         5.6957435161      -11.1733184540       -8.7560802304
 H         5.7208214574      -12.6445776803       -7.6926069042
 H         4.6685325665      -12.3485106332       -5.2157060409
 H         3.3373071448      -12.7755792135       -6.1952362019
 H         3.2184694123      -11.3549344189       -5.0771375907
 H         4.8168834556       -5.2514665503      -10.9647153095
 H         4.0387732078       -3.6192056099      -10.5592911329
 H         3.1566120981       -5.1795507213      -10.7374067003
 H         5.2743315855       -4.1683007065       -7.1218235172
 H         4.8047570131       -3.0399317344       -8.3845854306
 H         6.0218443482       -4.4894268055       -8.7257118830
 H        -0.4317635107       -0.3896162083      -11.4125149950
 H         1.0753903354        0.4251780151      -11.2838028822
 H        -0.3737578382        1.3792664692      -11.0533656213
 H         2.1644438230        1.0972764699       -8.7813235601
 H         0.7497903804        1.2306477948       -7.5063834279
 H         0.9006922444        2.2222442548       -8.8777643301
 H        -5.6650309179        1.7471729889       -5.1082232050
 H        -5.3438809560        2.4369260807       -6.6867789484
 H        -4.0247687025        1.8534476785       -5.8036773793
 H        -5.8690272999       -0.8965066474       -5.0367392864
 H        -4.1097870979       -0.7985591400       -5.4807595668
 H        -5.1534426113       -1.8638572393       -6.3917244181
 H       -10.4946977769        1.3973232722       -2.4017568947
 H        -8.9013567893        2.0282225165       -2.7216619872
 H        -9.1663442757        0.2675909744       -2.5483508189
 H       -11.9465760269        0.5174890088       -3.8101797882
 H       -10.8790558233       -0.9540626870       -3.9863108368
 H       -11.7022452483       -0.1214555365       -5.3685692327
 H        -7.8184671802        8.6725373485       -5.8778181141
 H        -6.0629787459        7.9972134312       -6.1667287539
 H        -6.7848719522        7.7433924580       -4.6378840873
 H        -9.3407929976        6.3515513360       -7.9040495487
 H        -8.0031763253        7.0558512308       -8.4582706098
 H        -9.0991254522        7.9095574992       -7.4439306109
 H         0.1348282049        5.7242754672       -8.3777475314
 H        -0.3733692863        5.0932120963       -9.9323411873
 H        -0.7328915357        4.2489303386       -8.5019312437
 H        -2.9747099758        7.9659061710       -9.1205873401
 H        -1.6024753049        7.8045281802      -10.1713260052
 H        -1.5232356151        8.0696233276       -8.3860087085
 H        -6.2395358795        4.4734666787      -14.4236223012
 H        -6.0323793842        6.1366661212      -13.9203139616
 H        -7.6245787154        5.5161304894      -14.4899134892
 H        -8.0850460899        6.0308942286      -10.9328527248
 H        -9.1787147256        5.1291226353      -12.2486939440
 H        -8.5157569997        6.7612047462      -12.5019240895
 Na       -5.8159542353        3.2435443988       -9.1030661407
 Na        1.2528655997       -6.8983927179      -10.1347477759
