232

 C        -8.4799998108        2.8743884173      -12.9785348569
 C        -7.3918129603        3.4763224862      -12.1109994087
 O        -6.8268929150        2.8161047268      -11.2805081935
 C        -7.0859499324        4.9921530154      -12.3777805584
 C        -5.8873857754        5.1699354539      -11.3620522904
 O        -6.0577996961        5.5534835323      -10.2046614937
 C        -4.4646454260        4.8245811821      -11.7727450362
 C        -3.4097023041        5.6795934135      -10.9519890960
 C        -2.9459586956        5.1098351639       -9.5752631751
 O        -3.3873713042        4.0039612334       -9.2991649803
 C        -2.0676261772        5.9931671110       -8.6590486070
 C        -2.7152626204        6.1003683442       -7.3038112065
 O        -2.0159534971        5.7729138877       -6.3577002036
 C        -4.2107413679        6.3606523912       -7.3560204260
 C        -4.9814896618        5.6135503727       -6.3173414149
 C        -6.5526047500        5.5376182880       -6.8067773615
 O        -6.9307447789        4.5667059126       -7.4054483786
 C        -7.5931242016        6.6597295472       -6.3858782408
 C        -8.4497573234        5.7939172141       -5.2763406026
 O        -8.0113598966        5.8437393531       -4.1565173562
 C        -9.6097494730        4.7756102224       -5.7541092006
 C        -9.6617279054        3.6514569267       -4.6810697495
 C       -10.1544414161        2.3923967402       -5.2751263695
 O       -10.8036647066        2.3172841902       -6.3039677873
 C        -9.9293775157        0.9804024107       -4.4276886633
 C        -8.8361428476        0.1606918090       -5.1900626473
 O        -7.7583739547       -0.1275162784       -4.6872432073
 C        -9.1566671726       -0.3105579303       -6.6179682109
 C        -7.8330960568       -0.7371066391       -7.4563891385
 C        -6.7972319652        0.3994223261       -7.4896857670
 O        -7.1566941536        1.4143231301       -8.0991691442
 C        -5.3684562424        0.3900826533       -6.8123920352
 C        -4.3702657224        0.3485301467       -7.9996656466
 O        -4.2718260632        1.3285829215       -8.6959313774
 C        -3.4892164144       -0.8540866309       -8.3610239067
 C        -2.3197249652       -0.5121950629       -9.3144136911
 C        -1.0539999813       -0.3414917930       -8.5578735342
 O        -0.9393109663       -0.6389580985       -7.4035368307
 C         0.2468581260        0.0320192066       -9.3183606112
 C         1.1487035433       -1.2070709162       -9.3097344334
 O         2.2164600161       -1.0980741332       -9.9443105405
 C         0.9854089407       -2.5424929964       -8.3502490952
 C         2.3352690165       -3.0666845933       -7.8510035238
 C         2.5049404818       -4.4362895325       -8.4409738526
 O         1.5662850115       -5.0854809940       -8.8632820996
 C         3.9598125447       -4.8805596243       -8.8210151487
 C         4.0792008587       -6.4860345223       -8.6042678067
 O         3.3838994908       -7.1599613977       -9.3208516933
 C         4.8228045101       -7.1377454364       -7.4276529868
 C         5.1653031577       -8.6023585506       -7.7844101019
 C         4.3050550564       -9.5871635274       -6.7277180481
 O         3.7411589238       -9.1004027200       -5.7477578419
 C         4.2589217023      -11.1348681650       -7.1124110178
 C         3.1219093214      -11.2126379434       -8.1229088078
 O         3.3955440586      -11.2789038620       -9.3226874621
 C         1.6921844399      -11.1201839147       -7.6396304163
 C         0.6321677597      -11.4088601664       -8.8141892396
 C         0.5733679721      -10.2316346300       -9.8627937898
 O         0.6340892991       -9.1167728201       -9.3804369939
 C         0.2946265023      -10.3603109129      -11.3867500258
 C         0.7509958666       -8.9945898895      -12.1952395113
 O         1.8382523459       -8.5933174677      -11.8191070362
 C        -0.1814480551       -8.4952572210      -13.3009940525
 C         0.4318192922       -7.5441755836      -14.2365169051
 C         0.7732469132       -6.1013099844      -13.4520797665
 O         0.7895921707       -6.0149742991      -12.2441274525
 C         1.0597157969       -4.8419811616      -14.2942188136
 C        -0.1682499247       -3.8480637365      -13.9135576918
 O        -0.0983055990       -2.9719581930      -13.0349277897
 C        -1.5438968588       -4.1458383501      -14.5798392274
 C        -2.6547139149       -3.0495726879      -14.4504744915
 C        -3.9454005332       -3.6169275221      -13.9814721733
 O        -4.0166626127       -4.7924518815      -13.6876180026
 C        -5.3035931037       -2.7473441052      -13.9530349620
 C        -5.5649718356       -2.5023867294      -15.5738668798
 O        -4.7129404273       -1.9696825545      -16.2597354080
 C        -6.7918633138       -3.0455740879      -16.1871161123
 C        -7.3663800038       -2.2100223215      -17.3174784229
 C        -8.3117168925       -1.1284489406      -16.6956787964
 O        -8.0603436829       -0.6643959695      -15.5927119676
 C        -9.5971895140       -0.6739548681      -17.4462987426
 C        -8.9353381598        0.1388127204      -18.6831459761
 O        -7.7225389751        0.2566354421      -18.6557784306
 C        -9.9396462311        0.8112171314      -19.5597391441
 C       -10.4379922344       -1.9064111783      -17.8695885702
 C       -10.4902099838        0.2305824786      -16.6663916460
 C        -6.4132774439       -3.5333016949      -13.3234073384
 C        -5.1296005743       -1.4909718532      -13.1515305451
 C         2.4983229214       -4.3134877099      -13.8249544470
 C         1.0037020091       -4.9136201183      -15.8514161348
 C         1.2215507169      -11.5296270066      -11.9197640064
 C        -1.2139431003      -10.7919139309      -11.5236201570
 C         5.6387584898      -11.5269003298       -7.5895241431
 C         3.9460903023      -11.9249872649       -5.7599632239
 C         4.1114606234       -4.7144933610      -10.3296278721
 C         5.2463759250       -4.0919003150       -8.2265338371
 C        -0.0036485625        0.5476856354      -10.8014766650
 C         0.9224385501        1.3369722250       -8.7128627131
 C        -5.0917408688        1.7186832820       -6.0008603414
 C        -5.0717054207       -0.7788587325       -5.8168648238
 C        -9.5688589081        1.2344996780       -2.9487929385
 C       -11.1672385123        0.1571367614       -4.4523552592
 C        -6.9874818092        7.8356826981       -5.5839575252
 C        -8.5285602405        7.1856864406       -7.4595989467
 C        -0.6531412422        5.3472509931       -8.6428192434
 C        -1.8680486759        7.3857287993       -9.1973526392
 C        -6.7075051644        5.2644497542      -13.8707385490
 C        -8.3978462497        5.8635110640      -12.0268978558
 H        -8.5110070449        3.2776715742      -13.9849544379
 H        -9.4895770503        3.0422024756      -12.5139741292
 H        -8.3997621880        1.7752147798      -13.2228769442
 H        -4.4336338838        4.9788058973      -12.8662213762
 H        -4.2553887373        3.7584159142      -11.7925001968
 H        -3.7253029012        6.7201374753      -10.9062484270
 H        -2.3888219840        5.8254144700      -11.5266634983
 H        -4.5466876299        6.1693951423       -8.3669108277
 H        -4.3772085348        7.4782778700       -7.3074237120
 H        -4.8415113392        6.0534879646       -5.3535982812
 H        -4.5751942673        4.5655932828       -6.3412682362
 H        -9.2502024725        4.4873241974       -6.6728445446
 H       -10.5565327111        5.4193862610       -5.8058584556
 H       -10.3063604444        3.8939975237       -3.8016941941
 H        -8.6522830291        3.5053948013       -4.3106848265
 H        -9.5821676903        0.4624741638       -7.1898523886
 H        -9.7867238033       -1.1632252308       -6.6473527082
 H        -8.1083032334       -0.8690941342       -8.5163894136
 H        -7.5180027908       -1.7050602363       -7.1252370291
 H        -4.0784368439       -1.6437485198       -8.7834742174
 H        -3.1443419742       -1.1971145660       -7.3356735651
 H        -2.4696720309        0.4026666918       -9.8690819689
 H        -2.0721714855       -1.3186367500      -10.0249066470
 H         0.4285145994       -3.1638345527       -8.9842539267
 H         0.3667288244       -2.2513939843       -7.4053029697
 H         2.2969205197       -2.8564868671       -6.7435646486
 H         3.2068579218       -2.4647092101       -8.2012009245
 H         4.2784612324       -7.1644547441       -6.4668487040
 H         5.6539831057       -6.4764707530       -7.1123683666
 H         6.2116526693       -8.9011491894       -7.6106733598
 H         4.8909757278       -8.9008506919       -8.7881733877
 H         1.4961475725      -10.0432960938       -7.3458968618
 H         1.3547213770      -11.8445031963       -6.8714989546
 H        -0.3361074382      -11.4270766223       -8.3086669398
 H         0.7279698368      -12.4089262995       -9.3190787181
 H        -1.1091684886       -8.0059430420      -12.9385018762
 H        -0.5463873204       -9.4079369218      -13.8287032093
 H        -0.1860071449       -7.1996581211      -15.1138712206
 H         1.4673164035       -7.7756745941      -14.6070401977
 H        -1.9124660364       -5.0179967989      -13.9844205054
 H        -1.5567188089       -4.6479109690      -15.5997315420
 H        -2.7938607964       -2.6618537257      -15.4373144120
 H        -2.3082492909       -2.1594167407      -13.8056961634
 H        -7.5228445535       -2.9304442270      -15.3558132533
 H        -6.6235684223       -4.1293259482      -16.5491728673
 H        -7.8987722300       -2.8274444084      -17.9716093713
 H        -6.6534239133       -1.7813296646      -17.9684464081
 H        -9.6554228966        0.8678371674      -20.6259698881
 H       -10.0968668504        1.8328083907      -19.2597300765
 H       -10.9386712879        0.3463187714      -19.5516123782
 H        -9.9162980194       -2.7689510786      -18.1931096214
 H       -11.0382873934       -1.7024520674      -18.7618575653
 H       -11.1633448909       -2.2666933830      -17.1367097960
 H        -9.8142139815        0.9223910795      -16.1121349230
 H       -11.1827372116       -0.2191183596      -15.9422409990
 H       -10.9977701599        0.9870901414      -17.1597826488
 H        -7.3734391865       -2.9085244672      -13.3244656070
 H        -6.2628305528       -3.8421658218      -12.2923129394
 H        -6.5370329845       -4.4937278186      -13.8727573947
 H        -4.8034600730       -0.6711170378      -13.8289103726
 H        -4.4871077611       -1.6183084592      -12.2958957921
 H        -6.0762219051       -1.2635335297      -12.6575068628
 H         2.8717966377       -3.5846267980      -14.5576124432
 H         3.2734209810       -5.0984802070      -13.8741508779
 H         2.4218081964       -3.8052889616      -12.8395830279
 H         0.4263178695       -4.0337897350      -16.2078241332
 H         0.4061374340       -5.7948973491      -16.1700388042
 H         1.9305756156       -4.8959939591      -16.3965764961
 H         1.4838355829      -11.3629776063      -13.0222363072
 H         0.7364144358      -12.4527824639      -11.6752282058
 H         2.1794904933      -11.4746626914      -11.3458740449
 H        -1.6236226143      -10.8541641588      -12.5766522035
 H        -2.0213244439      -10.2516189324      -10.9602538037
 H        -1.2469402970      -11.8697315452      -11.1774034238
 H         6.4226328400      -11.2947557685       -6.7874215428
 H         5.7486017203      -11.0416803226       -8.6233630814
 H         5.7120160968      -12.6082749680       -7.7518203623
 H         4.9359694761      -12.0766630758       -5.2204002769
 H         3.5705908876      -12.9212948294       -5.9016828394
 H         3.2917883049      -11.3464555452       -5.0576898025
 H         4.7865999721       -5.3771179621      -10.8484512222
 H         4.2707820747       -3.6666463911      -10.5230795037
 H         3.1272434648       -5.0669259909      -10.7252128209
 H         5.0178302418       -3.6962884876       -7.1866780393
 H         5.2490241052       -3.2093861289       -8.8148989530
 H         6.1076346287       -4.7240218978       -8.2921866705
 H        -0.6370513926       -0.1534631671      -11.3183878135
 H         0.8244190742        0.6571128447      -11.4393217465
 H        -0.5684273964        1.4989765027      -10.7727811802
 H         1.7466094957        1.5508779270       -9.2185001394
 H         0.9613634528        1.2480998011       -7.5949520236
 H         0.2580842813        2.1284711133       -8.8960017327
 H        -5.4509638581        1.6175591264       -4.9617412313
 H        -5.5527292352        2.6105684848       -6.3834554186
 H        -4.0340189110        1.9170376680       -6.0318288032
 H        -5.8222208443       -0.6607469084       -5.0190794078
 H        -4.0459154279       -0.7581402974       -5.3722467739
 H        -5.2076768083       -1.7534255726       -6.3210345011
 H       -10.4862627055        1.3876434399       -2.4080999120
 H        -8.9664914086        2.0823837459       -2.8375664229
 H        -9.0431468592        0.3618808793       -2.6128742205
 H       -11.9021219112        0.6691450548       -3.8715588170
 H       -10.9893758034       -0.8506817711       -4.2067165711
 H       -11.5736462720        0.2230863625       -5.4726824917
 H        -7.7946296217        8.3875295325       -5.1984299707
 H        -6.3023075883        8.3157063319       -6.3307391386
 H        -6.2249128388        7.4354922251       -4.8824726903
 H        -9.2844301193        6.4546083120       -7.8047414692
 H        -8.0990305487        7.4303097033       -8.4825827491
 H        -9.1925294346        8.0114767936       -7.1926216128
 H         0.0823974366        5.8469482604       -8.0122573492
 H        -0.2811934444        5.2297055494       -9.6073797544
 H        -0.8485759241        4.3701302795       -8.2543230629
 H        -2.7462580906        7.9580535160       -9.2562207413
 H        -1.4407728217        7.4239039059      -10.2316994586
 H        -1.2828088736        7.8836242474       -8.4554574332
 H        -6.5397864433        4.2873916134      -14.3358769519
 H        -5.7642316368        5.7943009217      -13.9453058513
 H        -7.4745948309        5.7150953496      -14.5108978578
 H        -8.6758275509        5.8011762981      -10.9960639746
 H        -9.0324574882        5.5973206340      -12.8454661330
 H        -8.2003205144        6.9968039353      -12.2078336203
 Na       -5.7572912851        3.1649344870       -9.1730856918
 Na        1.1815137107       -7.0686645304      -10.1065872868
