232

 C        -8.5936287256        2.7502468874      -12.7577900851
 C        -7.4417849022        3.4184961713      -12.0360591863
 O        -6.8064712722        2.7811174576      -11.2497259924
 C        -7.0386836791        4.8793020045      -12.3329277767
 C        -5.8589519328        5.2476735788      -11.4545049273
 O        -6.0042748395        5.6980380558      -10.3212663478
 C        -4.4034822096        4.7937711953      -11.8555001146
 C        -3.4100194708        5.5785942146      -11.0696674247
 C        -3.0375288259        5.0363015989       -9.6896194315
 O        -3.3657963288        3.9331734295       -9.2075327567
 C        -2.0394770203        5.9679906712       -8.8085656257
 C        -2.7112836625        6.0069037567       -7.2955254593
 O        -2.1576360168        5.7249783183       -6.2987107457
 C        -4.2382195887        6.4156645960       -7.3398193785
 C        -5.0570636893        5.5909477540       -6.3337932796
 C        -6.5049875691        5.5575538090       -6.7866975365
 O        -6.8199722074        4.5674954919       -7.4584674530
 C        -7.4867497320        6.6269195400       -6.3061210331
 C        -8.3168144063        5.7708581789       -5.2961351583
 O        -8.0717157571        5.8256496177       -4.1483750150
 C        -9.4397414481        4.7868686520       -5.7574261883
 C        -9.4646308602        3.5893495107       -4.8388972771
 C       -10.2235794743        2.2943762684       -5.3397457627
 O       -10.9083475883        2.2099781448       -6.3297134004
 C        -9.9932256709        1.0311544993       -4.4978119926
 C        -8.8482135705        0.1962964614       -5.2786700745
 O        -7.7936291777        0.0059759337       -4.7028319906
 C        -9.1870567010       -0.3293044949       -6.6448936331
 C        -7.8861026500       -0.6461251405       -7.3675606500
 C        -6.8577499686        0.5457298105       -7.4058271216
 O        -7.0900555342        1.5169850277       -8.0709384779
 C        -5.3994188387        0.4507829829       -6.8291975046
 C        -4.3478582623        0.4906527949       -8.0808982701
 O        -4.2739532056        1.4028679517       -8.7893626131
 C        -3.5548916493       -0.8137584057       -8.3054454186
 C        -2.5129593752       -0.6206748670       -9.4079831655
 C        -1.1323454679       -0.3800968726       -8.6108252616
 O        -1.0987781673       -0.5781965580       -7.4204168864
 C         0.1655846132        0.0616057139       -9.3244861636
 C         1.2910634246       -1.0884580388       -9.3102050954
 O         2.2855287720       -1.0701306387       -9.9602517712
 C         1.0042564356       -2.3590785356       -8.4986747305
 C         2.3287617360       -2.9718053859       -8.0358337115
 C         2.6392073292       -4.3781119583       -8.6718851472
 O         1.6021670881       -5.0764330643       -8.8488092434
 C         3.9931580045       -4.9159991349       -8.9219937408
 C         4.0254376084       -6.4244134132       -8.5488235313
 O         3.3873537677       -7.1235998669       -9.3206887404
 C         4.8496980390       -7.1604337084       -7.4629449131
 C         4.8897334520       -8.7007853793       -7.8196070382
 C         4.3465025042       -9.6101043207       -6.7551148001
 O         3.8471152885       -9.1333301437       -5.7842839729
 C         4.3007436501      -11.1146514925       -7.0357284760
 C         3.0802707675      -11.2249313194       -8.1755676732
 O         3.3350301675      -11.1308840922       -9.3548646497
 C         1.6703490249      -11.0900748227       -7.6180817390
 C         0.6020281150      -11.3250237412       -8.7733323866
 C         0.5789272414      -10.1615654570       -9.6665687535
 O         0.6190921597       -9.0138277995       -9.2553268747
 C         0.2961720124      -10.5006373586      -11.2573152841
 C         0.7250624385       -9.1789474983      -12.1220871824
 O         1.6512610033       -8.4417076220      -11.9528001771
 C        -0.1542959069       -8.6104651349      -13.2319943428
 C         0.4982690166       -7.5177140665      -14.0601859594
 C         0.6951706466       -6.0256418587      -13.4448321115
 O         0.6525822920       -5.8902874428      -12.2419665639
 C         0.9480569101       -4.7523285625      -14.3842470329
 C        -0.1701082274       -3.7821635144      -13.8981594827
 O        -0.0332390914       -2.8557975349      -13.1016750052
 C        -1.5040776412       -4.0874796387      -14.6232957936
 C        -2.5709460551       -3.0777648974      -14.4803353554
 C        -3.9173197849       -3.6920197044      -13.9331010316
 O        -4.0345788468       -4.8265578705      -13.5707196526
 C        -5.2298331359       -2.8129862513      -13.9439646040
 C        -5.4967356283       -2.4983866720      -15.4486125462
 O        -4.6501176436       -1.9430131724      -16.1440856513
 C        -6.8791525518       -3.0972593880      -15.9911895136
 C        -7.2892080274       -2.1194945363      -17.1146576216
 C        -8.2799698210       -1.0883110631      -16.5683557593
 O        -8.0449552920       -0.4779138669      -15.5551437788
 C        -9.5164532738       -0.7621955486      -17.3952221269
 C        -8.9689324484        0.0710283114      -18.6890347892
 O        -7.7808564847        0.1879919809      -18.8301148090
 C        -9.8957403014        0.7523222884      -19.6129968935
 C       -10.3435415841       -2.0697808243      -17.6430771781
 C       -10.3903068181        0.1961421286      -16.6226343796
 C        -6.3199812552       -3.7118109028      -13.3572020169
 C        -5.1754542478       -1.4327326086      -13.1832243236
 C         2.2689887219       -4.2051907451      -13.8851141583
 C         1.0331752166       -4.9870180797      -15.8709019250
 C         1.1047396973      -11.6245122545      -11.9525964398
 C        -1.1694623311      -10.8526496686      -11.4983651667
 C         5.6046409258      -11.6290662573       -7.6025402848
 C         4.0058906269      -11.8663616044       -5.7409024277
 C         4.1275272932       -4.7314499562      -10.4753175445
 C         5.1891679788       -4.1666245388       -8.1223511986
 C        -0.1418438957        0.4300894853      -10.8262425296
 C         0.7710870668        1.2763640475       -8.6839742480
 C        -5.1891714479        1.7331620422       -6.0890991798
 C        -5.0340694927       -0.7664062487       -5.8443964686
 C        -9.3993396831        1.2418699775       -3.0420340885
 C       -11.3519564163        0.2264097144       -4.5983010130
 C        -6.8807910186        7.8194021431       -5.5591856255
 C        -8.4029619966        7.2090574236       -7.3941778256
 C        -0.6091421028        5.3216403929       -8.4518079386
 C        -1.7114170211        7.4169244025       -9.3704415886
 C        -6.6282601276        5.1457875597      -13.7696965420
 C        -8.2574828960        5.8775405156      -11.9570481369
 H        -8.5070816761        3.0982896140      -13.7864678505
 H        -9.6046059909        2.9103613907      -12.4334376978
 H        -8.4431246293        1.6918020564      -12.9422064892
 H        -4.3086207341        4.7121514293      -12.9540531728
 H        -4.2560015799        3.7253380538      -11.6133336963
 H        -3.7676788271        6.6320244290      -10.9510213147
 H        -2.4570267135        5.7898774781      -11.4843757203
 H        -4.6243023899        6.3897802154       -8.3882956370
 H        -4.2994326040        7.5348668971       -7.1309369543
 H        -5.0413877790        5.9790827216       -5.3711370631
 H        -4.6268471704        4.6244518763       -6.3054819468
 H        -9.2353226136        4.5920806686       -6.8212139794
 H       -10.3580464292        5.3965222546       -5.6648437179
 H       -10.0202177547        3.8923174023       -3.9441199474
 H        -8.4205958963        3.3467905123       -4.4917064480
 H        -9.7706801523        0.3318335253       -7.2141419617
 H        -9.7307677425       -1.2858992280       -6.6127934823
 H        -8.0657863757       -0.9789494639       -8.4377404531
 H        -7.5418621302       -1.5586927854       -6.8874295370
 H        -4.2483051606       -1.7270910471       -8.3634443643
 H        -3.0516820888       -0.9065128458       -7.4062621268
 H        -2.6781773074        0.2993855805       -9.8779875999
 H        -2.3747953349       -1.4128945717      -10.0881455074
 H         0.4774198860       -2.9425399841       -9.3403178510
 H         0.2903514765       -2.2034070942       -7.6814495076
 H         2.1534150191       -2.9683456242       -6.9575701777
 H         3.1623947965       -2.2609890016       -8.1658247838
 H         4.4651093072       -7.0666472865       -6.4194057942
 H         5.8730268968       -6.7029559988       -7.2782663281
 H         5.8870127472       -9.1280328559       -7.9029480763
 H         4.3921858704       -9.0028965749       -8.7011132830
 H         1.5755171222      -10.1416002919       -7.1133451997
 H         1.4118566156      -12.0034603505       -6.9730430030
 H        -0.3842146019      -11.3999386942       -8.3646431749
 H         0.7386941268      -12.3162467788       -9.3667711554
 H        -1.1819713178       -8.3412606912      -12.8603215571
 H        -0.3960468671       -9.3326281730      -13.9958796815
 H        -0.1974706352       -7.2171985537      -14.8622342133
 H         1.3807149462       -7.7724712969      -14.4887247175
 H        -1.9363599260       -5.0766219218      -14.4028486406
 H        -1.2881245914       -4.2378254200      -15.6951207662
 H        -2.6801625470       -2.6093669033      -15.4316755072
 H        -2.2293271844       -2.2417447558      -13.7359949307
 H        -7.6410151668       -3.1920013881      -15.2598284944
 H        -6.5774215734       -4.0380999857      -16.5124278802
 H        -7.6895160273       -2.6018117359      -17.9332630933
 H        -6.4344259735       -1.6590699753      -17.5837343567
 H        -9.4776030572        0.7206849005      -20.5814767217
 H        -9.9906061538        1.8319144705      -19.3441652829
 H       -10.9296675462        0.4088584566      -19.7185448421
 H        -9.6929139189       -2.9245572187      -17.8413269886
 H       -11.0950433090       -2.1915161942      -18.4047083804
 H       -10.9031330781       -2.3211444504      -16.6993557032
 H        -9.8759986768        1.0813904033      -16.2042913788
 H       -11.0042998220       -0.2556165574      -15.8368829592
 H       -11.0141415129        0.7860465073      -17.2546239868
 H        -7.2346746086       -3.1797675956      -13.1649782274
 H        -6.0049758509       -4.0139973250      -12.3259342381
 H        -6.4256776814       -4.6088388835      -13.8944925133
 H        -4.6706263638       -0.7026011999      -13.8272700888
 H        -4.7450827153       -1.5068656920      -12.1147392056
 H        -6.2122348845       -1.1290990978      -13.0065573144
 H         2.5846712034       -3.2871685097      -14.3314116398
 H         3.0800013937       -4.9101962011      -14.1719764035
 H         2.1599099403       -4.0429394741      -12.7973453817
 H         0.8303337129       -4.0608164751      -16.3392714983
 H         0.2668163879       -5.7337758234      -16.2625153781
 H         2.0073190179       -5.2098306150      -16.1838160156
 H         1.3743523732      -11.3006354754      -12.9823384272
 H         0.4405276637      -12.5165585709      -11.9128096823
 H         2.0485652462      -11.8667152488      -11.3643608946
 H        -1.5433556571      -11.0865100426      -12.4914126957
 H        -1.8319506154      -10.0441712610      -11.0959115758
 H        -1.4262741625      -11.7413908993      -10.8943621571
 H         6.4688888519      -11.6154253816       -6.8920519411
 H         5.7274067789      -11.1480579817       -8.5541016849
 H         5.4568274433      -12.6736965761       -7.8451404761
 H         4.8624015086      -11.7913059930       -5.0617212932
 H         3.9125052573      -12.9547768803       -5.9553808532
 H         3.1160926643      -11.5138121131       -5.1956208574
 H         5.0157578182       -5.1742983991      -10.9114114370
 H         4.1263391983       -3.6507793630      -10.5576804681
 H         3.3044641507       -5.2241552214      -11.0080247107
 H         4.5667657911       -3.7716701212       -7.2960690693
 H         5.4790849896       -3.3155885949       -8.6683900158
 H         6.0177530113       -4.7705758985       -7.7920148794
 H        -0.6463890287       -0.3462941466      -11.3144958678
 H         0.7239348926        0.6628694307      -11.4060467856
 H        -0.8245378935        1.3057697873      -10.9051487428
 H         1.4617725024        1.7633460229       -9.4231932913
 H         1.2422353386        0.8552717850       -7.8782674233
 H         0.0874877630        2.0474099600       -8.3051611203
 H        -5.5285065841        1.5986035330       -5.0581509881
 H        -5.7702437925        2.5817300467       -6.4270594376
 H        -4.1409758811        2.0301992393       -6.1243818032
 H        -5.7933161010       -0.6431610801       -5.0601842478
 H        -4.0481038210       -0.7804982744       -5.4043402688
 H        -5.2748961210       -1.7303405018       -6.3811960260
 H       -10.2155025499        1.6962950145       -2.4189062346
 H        -8.5905832476        1.9776286318       -3.0772968092
 H        -9.0544930106        0.3206595203       -2.6971141774
 H       -12.1328902363        0.7733627409       -4.0592370113
 H       -11.2196629966       -0.7884534552       -4.3319273643
 H       -11.6762644728        0.2422687736       -5.6177457989
 H        -7.5609901044        8.1141638783       -4.7703999858
 H        -6.6321689290        8.5557599694       -6.2752872863
 H        -5.8791658401        7.5128529787       -5.2313268489
 H        -9.0016988972        6.5675027199       -8.0789313434
 H        -7.8299195950        7.8091374178       -8.1686143295
 H        -9.2162716021        7.8895375891       -7.0282596410
 H        -0.3412782362        5.9374456792       -7.5407624857
 H         0.2348685182        5.2766261267       -9.1239098753
 H        -0.8533113767        4.3653402824       -7.9595232969
 H        -2.6515729555        8.0027040439       -9.4379979918
 H        -1.3550179001        7.4442632998      -10.3622398339
 H        -1.0767664135        7.9407954618       -8.6215830359
 H        -6.4638977259        4.1984246949      -14.2691511890
 H        -5.7451992486        5.7897464398      -13.8789144801
 H        -7.4570491364        5.5363156521      -14.3538169990
 H        -8.8723568559        5.6269795416      -11.1278027481
 H        -8.6524445562        6.0908272886      -12.9342191515
 H        -7.8600692026        6.8031583698      -11.6748071317
 Na       -5.7054348056        3.1151836867       -9.1316448298
 Na        1.1823696404       -7.1518426254      -10.1342236375
