232

 C        -8.6918745164        2.7696606440      -12.5541157926
 C        -7.4425522516        3.3459963902      -11.8311196332
 O        -6.7956689874        2.6434527474      -11.0516430945
 C        -6.9575939532        4.7606798147      -12.1679753113
 C        -5.6077489211        5.1975974803      -11.3772101593
 O        -5.8017432798        5.9549304333      -10.4559291996
 C        -4.2339709615        4.6549192809      -11.7621660321
 C        -3.0699393791        5.4541520448      -11.1676263845
 C        -2.8798371724        5.0428011711       -9.5869619937
 O        -3.4286293965        4.0526641208       -9.2081921967
 C        -1.9274760004        5.9106465450       -8.7855176731
 C        -2.7438235187        6.1406637072       -7.3784822108
 O        -2.2751627600        5.6170988998       -6.3707892076
 C        -4.2304582624        6.6009214597       -7.3802731879
 C        -4.9201342299        5.5536164299       -6.5398227450
 C        -6.4510344016        5.6040519436       -6.8212043389
 O        -6.8197026658        4.8952508817       -7.7284890148
 C        -7.3999710037        6.6055685729       -6.1643891079
 C        -8.3274248266        5.7397129961       -5.2364008530
 O        -8.1548726063        5.8161876154       -4.0356417490
 C        -9.1888895840        4.6526500036       -5.8674607602
 C        -9.1056976384        3.3836139466       -5.0655542856
 C       -10.1567468832        2.3472800434       -5.5134812998
 O       -10.9368841973        2.4857634390       -6.4442279351
 C       -10.0918139046        1.0117202232       -4.5434046810
 C        -8.9456734010        0.2675468927       -5.3538218853
 O        -7.8241379565        0.2914172243       -4.8477148775
 C        -9.1482021192       -0.2970359788       -6.8507486736
 C        -7.7159296220       -0.6817494940       -7.4237638085
 C        -6.9131065733        0.6248244577       -7.4521284431
 O        -7.3626023947        1.5626410918       -8.0865299771
 C        -5.3967941528        0.5895788757       -6.8615013945
 C        -4.4250613637        0.4595169527       -8.1023051715
 O        -4.3789735685        1.3882614770       -8.9398073726
 C        -3.7392744671       -0.9692325014       -8.4929249491
 C        -2.5795608761       -0.8413703759       -9.4470287163
 C        -1.2622420844       -0.4490952313       -8.6433293359
 O        -1.1204791914       -0.3855146562       -7.4443257997
 C        -0.0023578531       -0.0288635193       -9.4867544223
 C         1.2114741335       -0.9382949774       -9.4093526547
 O         2.2119305706       -0.6024137256      -10.0652503741
 C         1.1926585653       -2.2331673705       -8.5867404457
 C         2.5194180804       -2.9777596247       -8.3571503987
 C         2.4886628773       -4.3641308374       -8.7846340434
 O         1.5017046704       -5.0025522759       -8.9900470143
 C         4.0449089438       -4.9934400595       -8.9532486769
 C         3.9519798761       -6.5446372256       -8.7785503025
 O         3.2160008203       -7.1816367884       -9.5108289989
 C         4.8260892029       -7.2087489421       -7.7282412827
 C         4.9700590997       -8.6946307650       -7.9547385796
 C         4.3724928944       -9.6588952385       -6.7459614573
 O         4.0341797825       -9.1312114902       -5.6984936216
 C         4.2423325549      -11.1360943742       -6.9867571752
 C         3.0616151523      -11.1347787174       -8.0606650631
 O         3.2398435447      -10.9626167857       -9.2639147580
 C         1.5902096512      -11.3448485996       -7.5775464750
 C         0.6425607466      -11.4122028744       -8.7528109315
 C         0.5285815634      -10.1697109148       -9.7193714652
 O         0.5279224644       -9.0685255400       -9.1944115855
 C         0.1890475639      -10.3815014350      -11.1629633174
 C         0.6574855276       -9.1533705356      -12.0679411135
 O         1.7574726503       -8.6115134658      -11.8606526208
 C        -0.1354558614       -8.5578613270      -13.1312319219
 C         0.4434734932       -7.3957799434      -14.0007417433
 C         0.5604974201       -6.0294299288      -13.3314849685
 O         0.3431185327       -5.8694883527      -12.1441338093
 C         0.9673362342       -4.8044396512      -14.2658328375
 C        -0.2810150359       -3.7619691827      -14.1769993502
 O        -0.0790264445       -2.7979547129      -13.4390928931
 C        -1.5898129922       -3.9343115394      -14.8005985935
 C        -2.5642718306       -2.9227779996      -14.1396782570
 C        -3.8019195876       -3.7342802390      -13.6910504824
 O        -3.6703588650       -4.9140231340      -13.3734725637
 C        -5.2008378326       -3.0435460731      -13.7336025933
 C        -5.5377348186       -2.6496748467      -15.2962142137
 O        -4.7273966774       -1.9155643078      -15.8044336745
 C        -6.8049077701       -3.0828672888      -16.0706014148
 C        -7.1855325803       -1.9313854291      -16.9990634733
 C        -8.1273294385       -0.8160946529      -16.4767484240
 O        -7.9695221834       -0.3200045190      -15.3639775521
 C        -9.4299396868       -0.6708824740      -17.3023741482
 C        -9.0121536790       -0.0710349064      -18.6734817471
 O        -7.8807570520       -0.2530776789      -19.0704444414
 C       -10.0934135242        0.4130288823      -19.6152939920
 C       -10.1131097294       -1.9564149212      -17.5118329129
 C       -10.4496219833        0.3057619433      -16.6143723601
 C        -6.2490375323       -3.8457498965      -12.9575514393
 C        -5.0586560766       -1.6357493946      -13.1538879357
 C         2.1973513954       -4.1069298662      -13.7579341056
 C         1.1061435989       -5.3023910560      -15.7479983795
 C         1.2018907924      -11.5455294719      -11.6308742981
 C        -1.3398543783      -10.6594959908      -11.2090311413
 C         5.3657648760      -11.7354399813       -7.8010396602
 C         3.9343678158      -11.8963906634       -5.7517010825
 C         4.5120800939       -4.6816521769      -10.4361347103
 C         4.9307685644       -4.2658053186       -8.1016907336
 C        -0.2621278824        0.2594218938      -10.9547226584
 C         0.5437297257        1.1703665037       -8.7373279289
 C        -5.1462849572        1.8340838586       -6.0022400583
 C        -5.2685481524       -0.6161795291       -5.9368116950
 C        -9.7670771289        1.2761263930       -3.0770675054
 C       -11.4491129622        0.2390188605       -4.4610572265
 C        -6.7090022278        7.7453619954       -5.4482057428
 C        -8.2033837033        7.0511878226       -7.4255731301
 C        -0.6324607085        5.0796169343       -8.4474319388
 C        -1.5857741784        7.3066778827       -9.4147894668
 C        -6.7231211445        4.7956580410      -13.6869047457
 C        -8.1153445348        5.6865802377      -11.9109817248
 H        -8.9161126995        2.8334366751      -13.5904114440
 H        -9.5040848875        3.2730842748      -12.0375155461
 H        -8.7945365660        1.7297089361      -12.2804983183
 H        -4.2200528131        4.3396969986      -12.7975647935
 H        -4.2081532671        3.6631967708      -11.2646269882
 H        -3.1377191416        6.4594230661      -11.4449506083
 H        -2.0317217008        5.2026308753      -11.5850054575
 H        -4.5658641146        6.7106175098       -8.4003780836
 H        -4.3558535329        7.5522399473       -6.9170858973
 H        -4.6272958832        5.6104337097       -5.4447558436
 H        -4.4976834215        4.5419896594       -6.8573787549
 H        -8.9583424438        4.4872731494       -6.9248969034
 H       -10.2226989241        5.0443112175       -5.7643424050
 H        -9.3746972679        3.6392489259       -4.0159119230
 H        -8.1842929711        2.8111954913       -5.0121401418
 H        -9.4831461445        0.4755629234       -7.6386767669
 H        -9.8924667496       -1.1114955135       -7.0065177660
 H        -7.6492261314       -1.0826113941       -8.4293249847
 H        -7.2422843400       -1.4961716564       -6.8260957592
 H        -4.5471164958       -1.4858850808       -8.8753440289
 H        -3.3786273312       -1.5148518918       -7.5245869279
 H        -2.6334265546        0.0472282310      -10.1301879797
 H        -2.3156155316       -1.8058873336       -9.9517899372
 H         0.5780373403       -2.9696734468       -8.9995645463
 H         0.6824475452       -1.8639269414       -7.6684759291
 H         2.7413048635       -3.0559394161       -7.2811994533
 H         3.3407350409       -2.4842937890       -8.8372652420
 H         4.7123463475       -6.8491451681       -6.7110018987
 H         5.8289852552       -6.8992698587       -7.8861843223
 H         6.0135795637       -8.9879674999       -8.1489557519
 H         4.3903629524       -9.1145687068       -8.8274296307
 H         1.4326826940      -10.3915122898       -6.9614127662
 H         1.3926545964      -12.2134750594       -6.9966838521
 H        -0.4075228504      -11.6180706411       -8.4354126045
 H         0.9295175585      -12.2816847423       -9.2612055599
 H        -1.0930676721       -8.4416647024      -12.6218343982
 H        -0.5112146828       -9.2633017748      -13.9386077600
 H        -0.2020767129       -7.0724893886      -14.8084038440
 H         1.4543537712       -7.6306234403      -14.4697894701
 H        -1.9869722278       -4.9344091965      -14.6697194046
 H        -1.4600750851       -3.8873206245      -15.8730773535
 H        -2.9216863628       -2.1257893558      -14.8851057000
 H        -2.1239207153       -2.4417823399      -13.3309223448
 H        -7.5799216382       -3.1915496125      -15.3054200999
 H        -6.6309274178       -3.9793385781      -16.6061396387
 H        -7.4848463100       -2.2548813055      -18.0558074577
 H        -6.2517054718       -1.3458552052      -17.2832708680
 H        -9.8512617698        0.2837467406      -20.6952739940
 H       -10.4910976110        1.3791200762      -19.4511984196
 H       -10.9894050131       -0.1822093803      -19.4727104054
 H        -9.6707907238       -2.5522368887      -18.3147983883
 H       -11.1767061852       -1.8345606390      -17.8113139064
 H       -10.2643763109       -2.5504783622      -16.6346414344
 H       -10.3515183595        1.3558580263      -16.7942770542
 H       -10.3564174966        0.0789699656      -15.5595021717
 H       -11.5079151965        0.2802934882      -16.8389558104
 H        -7.1923675813       -3.2585607751      -12.9248867579
 H        -6.0307405522       -4.0129571907      -11.9374462261
 H        -6.3403860839       -4.7817196481      -13.5726318363
 H        -4.0283594736       -1.2533671480      -13.2896616034
 H        -5.2836126960       -1.6502972221      -12.1351240120
 H        -5.7321054896       -0.9295071682      -13.6760035912
 H         2.2045399392       -3.0417782494      -14.0649107116
 H         3.0413357744       -4.5012221998      -14.2856816313
 H         2.3636593443       -4.1050899812      -12.6911932425
 H         1.8636772760       -4.8023821916      -16.3906365982
 H         0.1843521277       -5.3121852358      -16.2492930737
 H         1.5851996661       -6.2854825065      -15.6502150417
 H         1.1333890553      -11.6315597017      -12.7194894903
 H         0.9838479229      -12.4670874119      -11.1794010750
 H         2.1515135701      -11.2320799637      -11.2987114532
 H        -1.5666177232      -11.0834270650      -12.1692427299
 H        -1.8800511795       -9.7568565017      -11.0990812131
 H        -1.7308022596      -11.3016550731      -10.4431402306
 H         6.2774326029      -11.5901971104       -7.2710998864
 H         5.4856732186      -11.3137217553       -8.7823273623
 H         5.1882744823      -12.7635832363       -7.8517986469
 H         4.5758935851      -11.6185443921       -4.9246513498
 H         3.9648250945      -12.9346338844       -5.8760671777
 H         2.9201947057      -11.6647621632       -5.4800805744
 H         5.5999468972       -4.6732435078      -10.4631646494
 H         4.1985249577       -3.6913206666      -10.7345566087
 H         4.2094664669       -5.5078095205      -11.0876611428
 H         4.6782189870       -4.4807748115       -7.0354936028
 H         4.9544904824       -3.1940948524       -8.3889611682
 H         5.9549624497       -4.6320371139       -8.3950493985
 H        -0.5211575492       -0.6551735875      -11.5798614909
 H         0.6391349134        0.7786960444      -11.3132289096
 H        -1.1008393752        0.9086185010      -11.1818566419
 H         1.0562659734        1.8363535506       -9.3879818488
 H         1.2387559005        0.7206688901       -7.8623625351
 H        -0.3229668130        1.7327661213       -8.3148956196
 H        -5.9535721767        1.9211664436       -5.2655123834
 H        -5.3502505724        2.7163804648       -6.6183725706
 H        -4.1649639434        1.9493194183       -5.5361097997
 H        -5.9961833817       -0.5513526525       -5.1198693489
 H        -4.2641301996       -0.4648191646       -5.4848368689
 H        -5.3415615601       -1.5463320131       -6.4547444278
 H       -10.1773526596        2.2162183069       -2.7663464259
 H        -8.6736038800        1.3494420115       -3.0442780312
 H       -10.1075421359        0.3645049839       -2.4710515432
 H       -12.1202660494        0.8978223874       -3.9263229620
 H       -11.2914133794       -0.7113209434       -3.9044347469
 H       -11.8837931528       -0.0669918172       -5.4450963175
 H        -7.2840982923        7.8016335227       -4.5118663991
 H        -6.6694827280        8.7198560526       -6.0083341975
 H        -5.7106739110        7.4235107879       -5.1382642927
 H        -8.2702700336        6.3262921353       -8.1815147334
 H        -7.8801399165        7.9256128275       -7.9081323583
 H        -9.2218159910        7.2303821565       -7.2885127084
 H        -0.0628929677        5.5058663320       -7.6150503424
 H         0.0132555555        5.2092930253       -9.3448205053
 H        -0.9047288574        4.0323513758       -8.1895410031
 H        -2.4979648129        7.8214324554       -9.7033503068
 H        -1.0211836736        7.2933811865      -10.4083101841
 H        -1.0411124750        7.8280806184       -8.6497785237
 H        -5.8062111590        4.3723398585      -14.1007621831
 H        -6.8364770321        5.8325610131      -13.9362993708
 H        -7.5078281385        4.2586597703      -14.2191115174
 H        -8.7735747712        5.1310411857      -11.2668449479
 H        -8.5853919847        5.9495975158      -12.8235118450
 H        -7.9229231355        6.6252439921      -11.2976181852
 Na       -5.6880145405        3.3588973003       -9.0113731966
 Na        1.2582127476       -6.8478410600      -10.3539950476
