232

 C       -21.0820914582       -7.9589254988       -4.2238723274
 C       -20.6031108133       -6.5123242607       -3.8963131980
 O       -19.9194720578       -6.3396921882       -2.9397999150
 C       -21.2604415768       -5.3433792447       -4.7192522948
 C       -20.4528057614       -4.0093756311       -4.5768644644
 O       -20.2797027069       -3.6080369296       -3.4408722295
 C       -19.9910791010       -3.2578811695       -5.8227078032
 C       -18.6775480938       -3.7995216708       -6.4923058190
 C       -17.6200854636       -4.1627397602       -5.4851838121
 O       -17.7748106599       -5.1709123688       -4.8207930717
 C       -16.2925348486       -3.2020897308       -5.2084983489
 C       -16.1861232203       -3.3526194420       -3.6129974522
 O       -17.1109633375       -3.0166581021       -2.9139273168
 C       -14.7983317730       -3.8790633763       -3.0126880047
 C       -14.6284504161       -3.5455109715       -1.5247188436
 C       -15.5042671185       -4.3377177855       -0.4936951004
 O       -16.5232840994       -4.8984311557       -0.8241191875
 C       -14.8875460080       -4.5232370355        0.8911267951
 C       -13.4751021035       -5.1170511960        0.7722107134
 O       -12.5131298625       -4.7418769279        1.3982278861
 C       -13.3673114521       -6.2677991042       -0.1530480733
 C       -12.2636571675       -6.0454230291       -1.2139872346
 C       -12.4195134094       -6.8300092280       -2.5759767888
 O       -13.3203366561       -6.4703996071       -3.2956681048
 C       -11.5576454235       -8.1385474569       -2.9536376132
 C       -10.0180990159       -7.6695076982       -3.0455222952
 O        -9.4873348973       -7.2770156205       -2.0509927586
 C        -9.3175430073       -7.6515514533       -4.3705498829
 C        -7.8687377938       -7.1386208166       -4.1352225973
 C        -7.8065735696       -5.5990532524       -4.0016053963
 O        -8.7859443776       -4.8843925367       -3.8155007873
 C        -6.3777646911       -4.9222718471       -3.9455932256
 C        -5.3975898200       -5.2895020250       -5.1764150014
 O        -5.3631019381       -6.4407956781       -5.5242728276
 C        -4.4148974228       -4.3065904714       -5.7574316382
 C        -3.1462480165       -4.9430776097       -6.3495714886
 C        -2.1714617851       -3.9245691644       -6.8202855373
 O        -2.6044816062       -2.8098403567       -7.1038179950
 C        -0.5920913224       -4.1009931963       -6.9881189737
 C        -0.1835831346       -5.1670947548       -8.0624051328
 O         0.8983184112       -5.7591980142       -7.9792906666
 C        -1.1613213443       -5.4801007872       -9.2096037627
 C        -0.3409092319       -6.1335391272      -10.3919128970
 C         0.6228117566       -5.1938376272      -11.1181836939
 O         0.6118037397       -4.0286523276      -10.9317922236
 C         1.8893116501       -5.6708875730      -11.9899882079
 C         2.2268521333       -4.6484740841      -13.3028734719
 O         2.5593544301       -5.0358625804      -14.4110286300
 C         2.3355886578       -3.0890074512      -13.1156903650
 C         2.8006643136       -2.4090130618      -14.4634136749
 C         2.9590024472       -0.8651410353      -14.4302668319
 O         2.5069984400       -0.2468664798      -15.4096392629
 C         4.0528647844       -0.2008593287      -13.4868229103
 C         4.4068918323        1.1932660422      -14.0258650365
 O         5.2965640413        1.3391691100      -14.8376429169
 C         3.6029703512        2.4004691382      -13.5888559467
 C         4.4141769233        3.3702299006      -12.6370123613
 C         5.5192062690        4.1934561509      -13.3685241518
 O         5.7250430912        4.1363912214      -14.5803432860
 C         6.3529020169        5.1608991223      -12.5257134733
 C         6.3952564683        6.3981676661      -13.5836791982
 O         5.3312157609        6.9764543359      -13.6804841500
 C         7.6958102033        6.5907454826      -14.3230272482
 C         7.5637379525        7.2112232826      -15.6938056262
 C         7.0436437536        6.1423520824      -16.7347287497
 O         7.4084520803        5.0187648930      -16.5581246673
 C         6.3384359153        6.6040672434      -18.0249212500
 C         7.4630568493        6.2091004621      -19.1816551972
 O         7.9359666725        5.0652609261      -19.2739406540
 C         7.9834926511        7.2526795641      -20.1279282317
 C         8.9549800955        6.6609731041      -21.2044678942
 C         8.3692687693        5.6641104952      -22.2561622344
 O         7.3547578349        5.9430098298      -22.8182466629
 C         9.0357375149        4.2337199733      -22.6240574270
 C         8.8621830153        3.1698701657      -21.4417441323
 O         7.9170099964        2.4109762739      -21.3455839922
 C         9.9355267349        3.0337425623      -20.2581137039
 C         9.7336348572        1.6322778155      -19.5736705498
 C         8.3760322982        1.5753179155      -18.9050816078
 O         8.1574475858        2.3648055245      -18.0222544108
 C         7.3541208085        0.2384991912      -19.0494107534
 C         5.9644735456        0.9296092955      -19.3923476554
 O         5.3961305138        1.5000548403      -18.5015995576
 C         5.2554384710        0.8045877909      -20.7494408817
 C         7.7987898280       -0.8085008585      -20.1434580826
 C         7.0383184920       -0.5140886610      -17.7201779153
 C         8.3772481459        3.5290749240      -23.8462503015
 C        10.4985277607        4.4787856157      -23.0437921334
 C         5.2755540708        5.6199286604      -18.4446745973
 C         5.8646649688        8.0884404639      -17.9865562566
 C         5.7084065015        5.7624780727      -11.2258294124
 C         7.6844786300        4.4374253796      -12.2482126688
 C         3.3499746048       -0.0023158831      -12.0687431999
 C         5.2876161750       -1.1211978299      -13.4844826840
 C         3.0741463646       -5.3885544730      -11.0526164663
 C         1.9244413152       -7.1602522600      -12.4986799074
 C         0.1007271931       -2.7702086411       -7.5091295377
 C        -0.0835215259       -4.4196405817       -5.6341846535
 C        -6.4970640106       -3.3895869457       -3.6312617037
 C        -5.7094027516       -5.6507805209       -2.7505390545
 C       -11.8641645390       -9.2425672020       -1.8723073095
 C       -12.1247194414       -8.7383498264       -4.2682970282
 C       -14.8133271254       -3.1358079858        1.5682012866
 C       -15.7147434270       -5.5516729583        1.7004392020
 C       -15.0693125748       -3.7984034294       -5.9485809081
 C       -16.6775690956       -1.7271123194       -5.5528786253
 C       -21.5158606440       -5.7275016330       -6.2879654594
 C       -22.7114069704       -5.2255837836       -4.0109875430
 H       -21.5162540426       -8.4605504728       -3.3227260047
 H       -20.1392171530       -8.4293683964       -4.6415646801
 H       -21.7676842350       -7.9298381009       -5.0839467685
 H       -19.7012341354       -2.2678078346       -5.5060973360
 H       -20.8028576390       -3.1935369768       -6.5507881036
 H       -18.2548396947       -3.1477532718       -7.2591666003
 H       -18.8692975630       -4.7516623928       -7.0513385067
 H       -13.9878535303       -3.2723984396       -3.5282046700
 H       -14.6951349046       -4.9177318051       -3.2488406387
 H       -15.0148555841       -2.5050789275       -1.3381085374
 H       -13.6184961870       -3.5970002057       -1.1386296642
 H       -14.2818156445       -6.4553094703       -0.6988664010
 H       -13.1820384264       -7.1753080924        0.3964878748
 H       -11.3178189814       -6.3441221788       -0.7713378889
 H       -12.2118843654       -5.0030861695       -1.4670893246
 H        -9.8804670027       -7.0995482514       -5.1242436982
 H        -9.1467977184       -8.6339697129       -4.8491571965
 H        -7.1984520956       -7.5947157587       -4.8844850821
 H        -7.6066348691       -7.5924751923       -3.1815795511
 H        -4.1027871643       -3.5922364495       -4.9247293500
 H        -4.9930133732       -3.6596771718       -6.5236281583
 H        -3.3111886532       -5.4932545143       -7.2623557834
 H        -2.7495228729       -5.6778608254       -5.6549215714
 H        -1.9346612278       -4.6469650024       -9.4800393787
 H        -1.7730789406       -6.2562925354       -8.8863210179
 H        -0.9808760130       -6.5725176573      -11.1695358614
 H         0.1211234337       -7.0580277823       -9.9106707823
 H         2.9948363185       -2.8746894249      -12.2300309528
 H         1.2838272603       -2.7061937354      -12.8264574344
 H         2.1712672988       -2.7495231356      -15.2307243115
 H         3.7937596857       -2.8498670087      -14.6439900230
 H         2.7176978135        2.0743185625      -13.0487869630
 H         3.3902881603        3.0677366342      -14.3966148922
 H         4.8267933733        2.8580252080      -11.7474508314
 H         3.5606989457        4.0405035022      -12.3319267503
 H         8.1052408004        5.6047182858      -14.6340430485
 H         8.4662067234        7.0622208977      -13.6908776765
 H         8.6046885476        7.4910321177      -16.1152868434
 H         6.9738073965        8.0564925942      -15.6570342002
 H         8.5936487690        8.0384514895      -19.6006027730
 H         7.1492687734        7.8638511439      -20.5580024792
 H         9.8268708576        6.3326109425      -20.6997534165
 H         9.3518507836        7.5518381571      -21.7150252039
 H         9.8404511838        3.8723106431      -19.5481012518
 H        10.9713145995        3.2437484661      -20.5618263012
 H        10.5624569169        1.6018622798      -18.8803318241
 H         9.9264167293        0.9126421249      -20.4318796690
 H         4.4717407483        0.0015134790      -20.6622033192
 H         5.9686493141        0.7239844348      -21.5498551647
 H         4.7063031673        1.6889472596      -21.0306339044
 H         7.1924692863       -1.6463079855      -20.5861253858
 H         8.6481848150       -1.3277852940      -19.7896486356
 H         8.2677395762       -0.3061478197      -21.0350173690
 H         7.8698915234       -1.1341165180      -17.4481160411
 H         6.1361960965       -1.0733192067      -17.6950521268
 H         7.0257744088        0.1908053189      -16.9344056304
 H         9.2061503604        3.1339170691      -24.3014324889
 H         8.0218754121        4.2694760701      -24.5243891700
 H         7.5129911830        2.9181383443      -23.6880147025
 H        11.1566322163        3.6060634659      -23.0171577599
 H        10.9598639391        5.2329321358      -22.3875794182
 H        10.4094932391        4.7577154026      -24.1397824810
 H         4.3582868048        5.7713469863      -17.7687404558
 H         5.6099352438        4.6018672981      -18.2201916279
 H         5.0439655806        5.8097558860      -19.4785712116
 H         6.7191130909        8.7423574745      -17.7758397115
 H         5.1257186832        8.2625625585      -17.1747137764
 H         5.4267574863        8.4629147875      -18.9088295796
 H         6.1562233370        6.6468684185      -10.7483025562
 H         5.7109164424        5.0313094622      -10.4503552198
 H         4.5942801045        5.8461419971      -11.2412704712
 H         7.7060251577        3.5461173433      -11.5970552867
 H         8.4093447689        5.1879923959      -11.8239646170
 H         8.1918469059        4.3182156706      -13.2188648637
 H         4.1287617634        0.6668191286      -11.5464567497
 H         3.3834290107       -0.9720361451      -11.5437648622
 H         2.4343172638        0.4699260966      -12.0426093145
 H         4.9258820694       -2.0237746046      -12.9227855549
 H         6.0550848565       -0.5011614201      -13.1057740678
 H         5.5828553143       -1.2896667434      -14.5383951009
 H         2.9735262961       -6.0785815137      -10.2398064493
 H         3.0319277889       -4.3964437951      -10.6009442877
 H         4.0400504532       -5.5001610646      -11.5882935079
 H         1.4074154575       -7.3630265268      -13.4769301327
 H         1.3820243257       -7.7391855369      -11.7426862234
 H         2.9434555245       -7.6121290756      -12.5583742687
 H        -0.2682805310       -1.9250619339       -6.9695516842
 H        -0.1367554291       -2.6614010662       -8.5250843359
 H         1.1543684389       -2.8909979610       -7.3796598465
 H        -0.7880515596       -5.1542376251       -5.1262738384
 H        -0.2589857578       -3.5538626911       -5.0386380687
 H         0.9136238536       -4.7980082984       -5.5380141360
 H        -6.7643346172       -2.9248398349       -4.6109561699
 H        -5.5685136994       -2.8639758554       -3.3043004684
 H        -7.3413981672       -3.1985866289       -3.0257871883
 H        -6.3398972479       -5.4589140367       -1.8713261689
 H        -4.6802584273       -5.2778922026       -2.5320493979
 H        -5.6767203899       -6.6743129701       -2.9955442068
 H       -12.8524232531       -9.2067432317       -1.5472816270
 H       -11.2386612729       -8.9534102886       -0.9784841918
 H       -11.5359584102      -10.2660902262       -2.1516149032
 H       -13.2455923208       -8.8636501729       -4.2015711469
 H       -11.7189343631       -9.7158394945       -4.4582354835
 H       -12.1026772934       -8.1202236832       -5.1706265329
 H       -14.1554830521       -2.5191547492        1.0888169918
 H       -14.5887485164       -3.2995249167        2.6444170084
 H       -15.7838786840       -2.7060557003        1.6388621060
 H       -15.3608361651       -6.5374507312        1.4925345289
 H       -16.7333327756       -5.5311661681        1.4762221768
 H       -15.5803666071       -5.3543113106        2.7774496189
 H       -15.1137322251       -4.9125212821       -5.9923347939
 H       -14.1196980553       -3.5127465068       -5.4410263540
 H       -14.9857813083       -3.3824200738       -6.9454739175
 H       -17.4318232379       -1.2203644343       -4.8077735047
 H       -17.2692188532       -1.7061294165       -6.4952632382
 H       -15.7951764334       -1.0855735207       -5.5058167907
 H       -20.6144450667       -5.9775147617       -6.6887935547
 H       -22.0137430877       -4.8852473457       -6.7329331843
 H       -22.2574822575       -6.5191076171       -6.3298647625
 H       -23.4662242924       -4.8375735126       -4.6873513917
 H       -22.7279323726       -4.5353497566       -3.1687291057
 H       -22.9589370072       -6.2560619944       -3.7775476187
 Na      -18.5892131978       -4.6319520925       -2.1306223803
 Na        6.3936307049        2.6657131814      -16.4185743805
