232

 C        -8.6269817009        2.8130732795      -12.3121409266
 C        -7.3565332758        3.2058123698      -11.6615900201
 O        -6.7799809550        2.5492343872      -10.8552539158
 C        -6.9930002732        4.7232201707      -12.1345985477
 C        -5.5558460958        5.1844540083      -11.4090392440
 O        -5.5659849465        6.0034821839      -10.4888832545
 C        -4.2414295616        4.5217005806      -11.8119727743
 C        -3.0265471380        5.2391848806      -11.1326796410
 C        -2.9156532812        5.0794447415       -9.6459064160
 O        -3.4570527093        4.1196440884       -9.1194217003
 C        -1.9390892524        5.9872115919       -8.8068864416
 C        -2.5848559271        6.0318595031       -7.3947209893
 O        -2.1239114844        5.6539672527       -6.3768057953
 C        -4.0362153094        6.5741982285       -7.4743683086
 C        -4.8501442735        5.6267116059       -6.6144868465
 C        -6.3893045625        5.6944597294       -6.9979647041
 O        -6.8247360027        4.9096449706       -7.8170776396
 C        -7.3520163203        6.5965871964       -6.2568306067
 C        -8.2327161139        5.6233710948       -5.2426056319
 O        -8.2334683926        5.8711525594       -4.0957973156
 C        -9.1585153053        4.6172338845       -5.8924288716
 C        -8.9991119119        3.2932153020       -5.0785529794
 C       -10.1577742792        2.3418982492       -5.4189906512
 O       -10.8759184675        2.5544724856       -6.3541472939
 C       -10.1739223417        0.9982637331       -4.6264767468
 C        -8.9943528549        0.2875212501       -5.4149322938
 O        -7.8761682676        0.4074122201       -4.9406703012
 C        -9.2008045604       -0.2151727205       -6.7514176963
 C        -7.8787927700       -0.6125553864       -7.4594122711
 C        -6.8841720199        0.5584076194       -7.5651770108
 O        -7.2401838785        1.5996984999       -8.0219779015
 C        -5.3949194236        0.4973439266       -6.9146837851
 C        -4.5263825360        0.4324382714       -8.2095146194
 O        -4.3851797933        1.3176408940       -8.9638656290
 C        -3.8571851577       -0.9234836985       -8.5178449401
 C        -2.5631699560       -0.8979768071       -9.4100032467
 C        -1.2887382582       -0.4884606448       -8.6810811897
 O        -1.2965105707       -0.4725921736       -7.4952900356
 C        -0.0345936114        0.0484448379       -9.5310347081
 C         1.2093932147       -0.8960580190       -9.4113298415
 O         2.1855999777       -0.6122198702      -10.0607240763
 C         1.1665939180       -2.2465558042       -8.5503430881
 C         2.5860811816       -2.8241460113       -8.5577548154
 C         2.5212609883       -4.2666266832       -8.9300142365
 O         1.4691387751       -4.9035619835       -9.0779172253
 C         4.0319100464       -5.0229687846       -9.0365430652
 C         3.9222027164       -6.5800635839       -8.8383542021
 O         3.2812685417       -7.3070621632       -9.5946130557
 C         4.9001847073       -7.2549746436       -7.8143542791
 C         5.1093778353       -8.7954056109       -7.9873357229
 C         4.3921411596       -9.6146762314       -6.7652551128
 O         4.1952710053       -9.0457290046       -5.7325951864
 C         4.1181628901      -11.1753216377       -7.0176419188
 C         2.9481951839      -11.1421912622       -8.0628659969
 O         3.1664696105      -10.8832616530       -9.2436561992
 C         1.4543541802      -11.3796224769       -7.5887142871
 C         0.4948474582      -11.3874128905       -8.6865227544
 C         0.4723923889      -10.0800494852       -9.5430318622
 O         0.6041312866       -8.9470393315       -9.1424479829
 C         0.2538943626      -10.3436301548      -11.1819564041
 C         0.7421344826       -9.0873823586      -11.9561756830
 O         1.8935522330       -8.7300533488      -11.7973743806
 C        -0.2959562459       -8.4368069685      -12.9778108062
 C         0.4014792717       -7.5412549608      -13.9455806936
 C         0.5065064041       -6.0457184349      -13.3236776644
 O         0.2284767127       -5.8037858313      -12.1683836080
 C         0.9787533656       -4.8984342211      -14.2390990313
 C        -0.2367447064       -3.7041377907      -14.1798669402
 O         0.0251869854       -2.6993599614      -13.5188566683
 C        -1.5345130653       -3.8647034772      -14.9339280455
 C        -2.5807508862       -3.0470071814      -14.1054294908
 C        -3.8016843803       -3.8289795725      -13.6992265703
 O        -3.6683835797       -4.9223034764      -13.2061110906
 C        -5.2142322330       -3.0388166854      -13.6679716122
 C        -5.5393409983       -2.6641411558      -15.1708848707
 O        -4.6908874504       -1.9712808926      -15.7371768132
 C        -6.7728685345       -2.9811372054      -15.9931649677
 C        -7.1157548201       -1.8851104980      -16.9529550485
 C        -8.1315488149       -0.8516294737      -16.4117891242
 O        -7.9375033461       -0.3191779023      -15.3455687136
 C        -9.4376733162       -0.5603757650      -17.2431788400
 C        -9.0225842055       -0.1819020232      -18.7523734271
 O        -7.9420809869       -0.4033268496      -19.2334820758
 C       -10.2355764696        0.1909861755      -19.5928036380
 C       -10.0865723213       -1.9345335152      -17.4937568846
 C       -10.4238204997        0.4554995931      -16.5545387607
 C        -6.2646978257       -3.8504439963      -12.9068606676
 C        -5.1092343174       -1.6733556809      -12.8463694191
 C         2.2189211241       -4.2694273635      -13.6930580705
 C         1.1731247585       -5.3095289282      -15.7266580993
 C         1.0940016916      -11.4988408429      -11.6997663458
 C        -1.3077083282      -10.6445522915      -11.2588912128
 C         5.3921388765      -11.7536907692       -7.8061198687
 C         3.9043632142      -11.9264102834       -5.7358685590
 C         4.5252785960       -4.6679328191      -10.4699441197
 C         5.0096305030       -4.3693841569       -7.8979582883
 C        -0.3565274643        0.3084468380      -10.9897124572
 C         0.4407118380        1.3910099263       -8.8843479163
 C        -5.1404637558        1.8232097665       -6.1561670789
 C        -5.1920549627       -0.6457405418       -5.7962000486
 C        -9.8901457821        1.3653651186       -3.1536440747
 C       -11.5358272592        0.1999619963       -4.6789598140
 C        -6.7259061239        7.6809528849       -5.3660415617
 C        -8.3478634253        7.2421954489       -7.3318336771
 C        -0.7146209461        5.0604136320       -8.5297296044
 C        -1.4971888319        7.3437977678       -9.2958368865
 C        -6.6394259768        4.7100633675      -13.7357454907
 C        -8.1922182192        5.6673865985      -11.8532274063
 H        -8.5373959887        2.9153226669      -13.4027025648
 H        -9.5150111613        3.4307157217      -12.0794974718
 H        -8.8393372148        1.7165504293      -12.1300325111
 H        -4.1301565718        4.5487567236      -12.9267770413
 H        -4.3401714202        3.4705063632      -11.6013132123
 H        -3.1048296881        6.3185217757      -11.3878680850
 H        -1.9808642194        5.0047920366      -11.5909867681
 H        -4.3455752868        6.6910095894       -8.4740057439
 H        -4.0688950081        7.5635980598       -6.9754381800
 H        -4.5962740161        5.6970995917       -5.5487880559
 H        -4.4530377876        4.5567338490       -6.8765154399
 H        -8.9026990125        4.4279928673       -6.8770361714
 H       -10.2095571293        5.0742050519       -5.8891421590
 H        -8.8896010734        3.4338838054       -3.9933725097
 H        -8.2027430165        2.6376824435       -5.3844204086
 H        -9.7066570294        0.4226227835       -7.4383655558
 H        -9.8672961131       -1.0811365424       -6.7451196296
 H        -8.0344676541       -0.9747180411       -8.4773988757
 H        -7.4239419194       -1.4381529228       -6.9922162398
 H        -4.6362145490       -1.5420173971       -8.9533092883
 H        -3.5898597153       -1.3739466612       -7.5378699503
 H        -2.5414246688       -0.0866304123      -10.1775365673
 H        -2.3685330744       -1.9380439776       -9.8266250426
 H         0.5453475989       -3.0080418420       -8.8656604480
 H         0.7703521181       -1.8577991310       -7.5582148063
 H         3.0779295714       -2.8171114545       -7.5516861736
 H         3.2070897950       -2.2839080358       -9.3077350818
 H         4.5037985216       -7.0408056704       -6.8353492141
 H         5.9068983067       -6.8614677251       -7.7182866396
 H         6.1762283508       -9.1251039754       -7.9297886925
 H         4.7039677329       -9.2986722408       -8.8685827985
 H         1.1549349757      -10.5818838183       -6.8842534518
 H         1.3897852158      -12.3911094433       -7.0278616857
 H        -0.4856821326      -11.6920828148       -8.4306613081
 H         0.8706227288      -12.2332736301       -9.4246158459
 H        -1.2725956482       -8.1112151976      -12.5360389837
 H        -0.7522566756       -9.1987335635      -13.6304965555
 H        -0.2032455897       -7.2546251044      -14.9093778933
 H         1.4366140591       -7.8233449201      -14.2812563003
 H        -1.8196884996       -4.9120440932      -15.0841372136
 H        -1.3722981124       -3.5109569320      -15.9889810731
 H        -2.8814073201       -2.1886465720      -14.6097226360
 H        -2.1044687097       -2.6565172328      -13.1431431727
 H        -7.6360791733       -3.1778043927      -15.3339486261
 H        -6.5358078399       -3.9236274405      -16.6413589480
 H        -7.4692241427       -2.3020985982      -17.8300620399
 H        -6.2377716633       -1.3008361307      -17.3399878428
 H       -10.1218940640        0.2671976630      -20.6542017484
 H       -10.5663486377        1.1439343111      -19.1865242214
 H       -11.1750210353       -0.3694436120      -19.4325088681
 H        -9.6554215037       -2.3361012029      -18.3651805452
 H       -11.1565031612       -1.9467752293      -17.6233540825
 H       -10.0092794113       -2.6492184859      -16.6801263776
 H       -10.4245707603        1.5043723215      -16.9120545495
 H       -10.2682638064        0.4156300175      -15.4702195705
 H       -11.4175130709        0.2467988136      -16.6786296558
 H        -7.2559757770       -3.2690585352      -12.9177730379
 H        -6.0294106053       -3.8474154058      -11.8093965886
 H        -6.3547408605       -4.8398606176      -13.3697617135
 H        -4.1030346777       -1.2817751361      -12.9490951461
 H        -5.2244522656       -1.8662387920      -11.7939122491
 H        -5.7571999831       -0.9346605285      -13.2299934863
 H         2.4082564835       -3.2797512741      -14.0437828063
 H         3.1183723637       -4.8671634422      -13.9407719420
 H         2.1392661852       -4.1676218221      -12.5730356339
 H         1.6923213432       -4.5342645223      -16.3093039796
 H         0.1593339738       -5.4679865719      -16.2436570174
 H         1.8646329877       -6.1173116667      -15.7460412296
 H         0.7640366372      -11.6433856027      -12.7391286706
 H         1.0109071908      -12.4405466382      -11.2644573856
 H         2.1262921890      -11.1782224960      -11.6113075132
 H        -1.5788896321      -10.9156900891      -12.2784110781
 H        -1.9097189855       -9.7838886256      -10.8985901562
 H        -1.6135889746      -11.4638826875      -10.5844835565
 H         6.3052764089      -11.4685352963       -7.1785100782
 H         5.5809432195      -11.2947518248       -8.7996809961
 H         5.3313067563      -12.8252509181       -7.8740715187
 H         4.8192771749      -11.7763177881       -5.1450079521
 H         3.7298328623      -12.9635862511       -5.8701267483
 H         3.0597026220      -11.5819570700       -5.1534398761
 H         5.6024053987       -4.7645382802      -10.3690820074
 H         4.4070794072       -3.6145775959      -10.6561975494
 H         4.2435770746       -5.3635053401      -11.3052353002
 H         4.8230282022       -4.8484220170       -6.8449627164
 H         5.0632824095       -3.3191422238       -7.9562032517
 H         5.9917315087       -4.6377432055       -8.2995365306
 H        -0.7537317346       -0.5456258466      -11.4984405661
 H         0.5262386303        0.7231165996      -11.4558759746
 H        -1.1901491104        1.0838420204      -11.1715764187
 H         1.2867233965        1.7533756054       -9.4977513159
 H         0.7541601329        1.3122329984       -7.8830437049
 H        -0.3967950650        2.0696949797       -9.0735974183
 H        -5.9516392400        2.1068794993       -5.4624617042
 H        -4.9288524583        2.7102829350       -6.7252877398
 H        -4.2593838801        1.5951611413       -5.5656407798
 H        -5.8801410891       -0.5757503290       -4.9409519548
 H        -4.1875906336       -0.4791015118       -5.4381715907
 H        -5.3073938135       -1.6160264245       -6.3089256460
 H       -10.3983763941        2.3086001444       -2.8490646807
 H        -8.8346462600        1.4772655398       -3.0594934797
 H       -10.2057360747        0.5288312106       -2.5834296651
 H       -12.2948145387        0.8252888107       -4.1488134821
 H       -11.4327855027       -0.7465246374       -4.1709719724
 H       -11.8554920174       -0.0506316297       -5.7207492749
 H        -7.4318928509        7.8599837060       -4.5751950378
 H        -6.5454351281        8.6132125554       -5.9772989659
 H        -5.7689718203        7.3010904896       -4.8153488639
 H        -8.6535426628        6.5542865184       -8.0545206741
 H        -8.0540123375        8.1301465098       -7.8756624363
 H        -9.2778792770        7.5318921793       -6.9429176175
 H         0.0300536646        5.4035701444       -7.7962710482
 H        -0.2196441512        5.0127338351       -9.4157103597
 H        -1.1310455774        4.1236122320       -8.2412684478
 H        -2.1895486466        8.0451647614       -9.6830215675
 H        -0.8330515834        7.1032743339      -10.1585166865
 H        -0.8334146474        7.7021899408       -8.5161548728
 H        -5.6220398378        4.4020793657      -13.9329677525
 H        -6.8238529913        5.7059514373      -14.1269734301
 H        -7.2358335757        4.0303610345      -14.3504178566
 H        -8.7768391655        5.3080736469      -10.9798838745
 H        -8.8630720958        5.7310285810      -12.7797752929
 H        -7.8645512123        6.7155909842      -11.5731796372
 Na       -5.7524741574        3.4177562055       -9.0030419141
 Na        1.1759173932       -6.8111899774      -10.4356462823
