232

 C        -8.6445139269        2.5390595823      -12.0682413030
 C        -7.3832509995        3.2245128698      -11.5627671757
 O        -6.6701515228        2.6241192381      -10.7555619009
 C        -6.8589218999        4.5979204992      -12.1267108081
 C        -5.4723517176        5.0747645331      -11.4046067189
 O        -5.5423307905        5.9813487874      -10.6290552387
 C        -4.0421104201        4.3716059179      -11.7902421715
 C        -2.8365068597        5.1098352522      -11.1254463021
 C        -2.8369246748        5.0143682438       -9.6276007354
 O        -3.6853619025        4.3496319020       -9.0650750878
 C        -1.7191494116        5.7639249247       -8.8287029463
 C        -2.4841023922        5.9991589087       -7.4076179611
 O        -1.8149278128        5.8842603595       -6.3884303674
 C        -3.8810446412        6.6101863705       -7.3532642327
 C        -4.9879612505        5.7149397819       -6.6520137287
 C        -6.4486740103        5.8985631980       -7.0588728570
 O        -6.9175349523        5.2067794111       -7.9719796912
 C        -7.4688106943        6.7845048955       -6.3061690390
 C        -8.2317979876        5.7274280551       -5.3189612245
 O        -8.2520101892        5.8535614536       -4.1054788536
 C        -9.0362815098        4.6205856929       -6.0285202359
 C        -9.0212545222        3.3980771552       -5.2111401216
 C       -10.1830797416        2.4211904238       -5.4700356171
 O       -11.0697159970        2.6924474810       -6.2520915870
 C       -10.2555561844        1.0104944878       -4.7171369115
 C        -9.0367602656        0.3836030609       -5.3201557994
 O        -7.8795214713        0.4939111911       -4.8993834236
 C        -9.2176854732       -0.2679629823       -6.6949712138
 C        -7.8873831056       -0.5513802063       -7.4921968000
 C        -6.8773165944        0.6096708972       -7.4902934992
 O        -7.2643098592        1.6626358169       -7.9932979028
 C        -5.4035413316        0.4034402675       -6.8861110771
 C        -4.6033883795        0.1989484816       -8.2396702936
 O        -4.3860190563        1.1424792916       -9.0388816316
 C        -3.8187837881       -1.1211427107       -8.5383412386
 C        -2.6972163238       -0.8331868069       -9.5722789129
 C        -1.3427408839       -0.4656581966       -8.7986265845
 O        -1.2931957261       -0.5741585035       -7.5736457787
 C        -0.2012460018        0.1684028817       -9.6325924639
 C         1.0807051186       -0.7336673086       -9.4147288318
 O         1.9579995261       -0.3817069995      -10.1830989926
 C         1.2546422125       -2.1279967366       -8.5348427985
 C         2.5882413034       -2.8136158421       -8.6826144161
 C         2.6051031440       -4.3638845015       -8.9974192422
 O         1.6612438512       -4.9513072701       -9.4010707569
 C         4.0453179554       -5.0142053903       -8.9243260428
 C         3.9671444684       -6.6652349757       -8.8003393906
 O         3.4059571150       -7.2696908784       -9.7000486952
 C         4.9817521341       -7.3595819330       -7.8908236693
 C         5.1110185279       -8.8324261433       -8.1697098716
 C         4.5018430616       -9.6393934056       -6.8612066288
 O         4.3208064622       -9.0576057598       -5.8370394628
 C         4.0990870152      -11.1479322454       -7.1313353438
 C         2.7791213977      -11.0785575765       -8.0963014218
 O         2.8955858441      -10.7877694160       -9.2714848855
 C         1.4536450143      -11.3129308845       -7.3279013237
 C         0.2962644482      -11.1698497559       -8.3931139260
 C         0.5153715515      -10.0989697724       -9.5291774693
 O         0.7778650848       -8.9427794794       -9.2214862075
 C         0.2517262289      -10.3895395982      -11.1377468026
 C         0.6740425192       -9.0396620522      -11.9489587198
 O         1.8287336781       -8.5880377450      -11.9187198743
 C        -0.3419487618       -8.2874340805      -12.7722055781
 C         0.2971143971       -7.4567870982      -13.8248960253
 C         0.4675257413       -5.9935709375      -13.3510368972
 O         0.0244901256       -5.6941074708      -12.2361673350
 C         0.9204392328       -4.8876074708      -14.2890980267
 C         0.0413507431       -3.6405675241      -14.1806063903
 O         0.3651905321       -2.6134912584      -13.6121709180
 C        -1.4462932929       -3.8527672052      -14.7116823459
 C        -2.5410331888       -3.0900606140      -14.0183454825
 C        -3.8217384504       -3.8293234434      -13.5344522195
 O        -3.8554663161       -4.9708716137      -13.1002424555
 C        -5.1527180263       -2.9971964611      -13.5113323423
 C        -5.4222525187       -2.5265059459      -14.9769284211
 O        -4.6241246400       -1.8716311998      -15.5649280338
 C        -6.7829618788       -2.9167818892      -15.5776835551
 C        -7.0600069716       -2.0056475577      -16.8443033936
 C        -8.0931593296       -0.9072212447      -16.4590971437
 O        -7.9740566814       -0.3134665523      -15.3989059841
 C        -9.4257066695       -0.6713220213      -17.2733654601
 C        -9.2341293005       -0.4147832718      -18.8430891061
 O        -8.1298969571       -0.4618850815      -19.3679671735
 C       -10.4172878038        0.1108302933      -19.6074104970
 C       -10.2019190395       -1.9995159293      -17.0788421169
 C       -10.1333586518        0.5053915506      -16.6234743685
 C        -6.3127294914       -3.9785769652      -13.1109857658
 C        -5.0373615221       -1.8477937619      -12.5390583017
 C         2.2653630485       -4.6262805226      -13.5757678317
 C         1.2375829545       -5.2449989444      -15.8452014878
 C         1.0591882847      -11.5737091261      -11.7961514156
 C        -1.3217104240      -10.6630134129      -11.1521908767
 C         5.2720832333      -11.8377470360       -7.7834026432
 C         3.7749929286      -11.7326336576       -5.7738098116
 C         4.6067141613       -4.7074459898      -10.3621703934
 C         4.9867386793       -4.4810000143       -7.8192711261
 C        -0.5223921907        0.2345905725      -11.0756030978
 C         0.1502271548        1.5877385287       -9.0673714034
 C        -4.9776122085        1.7909690921       -6.2457432681
 C        -5.2112032076       -0.8059503950       -5.9931356580
 C       -10.1063001862        1.0410693039       -3.1917788240
 C       -11.5747919144        0.3967639810       -5.1379623227
 C        -6.6228729195        7.7438434249       -5.3776524454
 C        -8.5235214967        7.5446771058       -7.0529567873
 C        -0.4603791069        4.9215237461       -8.7991709982
 C        -1.4161213541        7.2190745849       -9.3978121398
 C        -6.7119268534        4.5800496668      -13.6801842340
 C        -7.8662447515        5.7123670252      -11.6538566320
 H        -8.7253788088        2.3533399398      -13.1613743236
 H        -9.4983237215        3.2279543190      -11.9261204057
 H        -8.7970787153        1.6125920755      -11.5292093492
 H        -3.7424330452        4.3848678517      -12.8382612901
 H        -4.0260458770        3.2669235278      -11.5390112707
 H        -2.7959823699        6.1728921060      -11.4019491838
 H        -1.9978297033        4.7201559451      -11.6283745700
 H        -4.1241089416        6.9952851614       -8.4089699507
 H        -3.7707248654        7.4617372461       -6.6726299056
 H        -4.9337061521        5.7909405866       -5.5828075026
 H        -4.7328257258        4.7299852943       -6.7553289041
 H        -8.6561073330        4.2469470734       -7.0539775676
 H       -10.0051680631        5.0109013514       -6.2456251053
 H        -9.1791100478        3.5809487351       -4.1474818098
 H        -8.1500862842        2.7332134154       -5.2761504833
 H        -9.8516074202        0.2757159489       -7.4176979999
 H        -9.7803793950       -1.1855602203       -6.7451925371
 H        -8.0747991131       -0.7547900854       -8.5495122225
 H        -7.4016134620       -1.5143645275       -7.1263797785
 H        -4.4866371003       -1.8650930529       -9.0155025774
 H        -3.4903593356       -1.5090059893       -7.5667261907
 H        -2.9487207999        0.0157399229      -10.1551679522
 H        -2.5250318703       -1.6809888238      -10.1594456840
 H         0.4280122303       -2.7886860058       -9.0212100607
 H         1.0261908479       -2.0820665694       -7.4787702966
 H         3.0498098580       -2.6526153618       -7.7123282063
 H         3.1665648120       -2.2944076304       -9.4818818897
 H         4.8308142431       -7.0366308646       -6.8143472287
 H         5.9780369951       -6.9618982792       -8.1536156880
 H         6.0909195227       -9.2321460040       -8.2544527726
 H         4.5495123777       -9.1434559297       -9.0433559540
 H         1.3182933766      -10.6682186302       -6.4016703645
 H         1.7186871383      -12.2723903986       -6.9525508016
 H        -0.7205858219      -10.8641439674       -7.9579799512
 H         0.1482053815      -12.0425372449       -8.8872003850
 H        -0.9427096637       -7.6776625375      -12.1322190728
 H        -1.1909232538       -8.8533001220      -13.1691908670
 H        -0.1423890871       -7.3810060805      -14.7176298443
 H         1.3323489451       -7.6461599197      -13.9831898478
 H        -1.6158357121       -4.9708825620      -14.7033080864
 H        -1.5202521814       -3.6350598891      -15.7728586328
 H        -2.8435617593       -2.1656293728      -14.6807565280
 H        -2.2071519545       -2.6285221436      -13.0923108934
 H        -7.5063125926       -2.7533265055      -14.7521425101
 H        -6.7877022153       -3.9391249010      -15.8386881900
 H        -7.5545520875       -2.5985913264      -17.6875136908
 H        -6.1769133155       -1.5533933493      -17.2154306664
 H       -10.0990259748        0.2117967233      -20.6694812678
 H       -11.0102226473        0.9564975619      -19.2961467321
 H       -11.1838356819       -0.6405820460      -19.6485239819
 H        -9.8678950717       -2.8631716837      -17.6915679538
 H       -11.2389484668       -1.7592367287      -17.3266851020
 H       -10.3007053145       -2.2881014298      -16.0471954954
 H        -9.6640666319        1.3992760413      -17.0494515541
 H       -10.0540320141        0.6585048737      -15.5520642639
 H       -11.2416947303        0.6512178649      -16.9047711015
 H        -7.2327431494       -3.4546703371      -13.0485096568
 H        -6.1525498328       -4.3801547177      -12.1392528267
 H        -6.3641732121       -4.7279758073      -13.9297012736
 H        -4.5710231367       -0.9615936008      -12.9847690319
 H        -4.4229689836       -2.1235950629      -11.6879641313
 H        -6.0745399807       -1.5017357720      -12.3107158587
 H         2.9931238610       -4.0320829506      -14.2118335065
 H         2.7383279530       -5.5552308404      -13.2338694431
 H         2.1088449517       -4.0339994940      -12.6794860374
 H         1.0975631932       -4.3257834460      -16.4328265882
 H         0.4818425798       -5.8523215746      -16.2106656755
 H         2.2855892409       -5.6039454349      -16.0233872711
 H         0.8790155884      -11.5320491375      -12.8878576492
 H         0.6978481238      -12.6320070101      -11.5550664479
 H         2.1183060057      -11.5053305148      -11.4670310008
 H        -1.5830439641      -10.8002513500      -12.2447915205
 H        -1.9419360716       -9.8625303830      -10.7130966225
 H        -1.6273770404      -11.5851226344      -10.5994079559
 H         6.1991396336      -11.6008083016       -7.2854513575
 H         5.4136908041      -11.4558625194       -8.8212747986
 H         5.0516316674      -12.9321700817       -7.8030110371
 H         4.6718570276      -11.9790850265       -5.1983488975
 H         3.0542418493      -12.5852284234       -5.7048855002
 H         3.2418181013      -10.9523660264       -5.1956340353
 H         5.3876712231       -5.4272299579      -10.7128210190
 H         5.0146436883       -3.6886776504      -10.5335540771
 H         3.7316301836       -4.8831877017      -10.9547528769
 H         4.6557495884       -4.6447909850       -6.8309217155
 H         5.2746580599       -3.4434421702       -8.0522208247
 H         5.9588481543       -4.9155395905       -7.9407692524
 H        -0.9645241318       -0.7256069719      -11.3855960580
 H         0.3404713875        0.5007021086      -11.6615228139
 H        -1.2360351345        0.9330199653      -11.2819791532
 H         1.1777553906        1.6139787517       -8.8325192908
 H        -0.3276127234        1.8161233817       -8.0193929271
 H        -0.1667940039        2.2520697934       -9.8250406713
 H        -5.6985839060        2.3594275162       -5.6843322819
 H        -4.7206668166        2.4263104453       -7.1009671743
 H        -4.0936557120        1.7140526939       -5.6034996545
 H        -5.7165866358       -0.5614893203       -5.0560505235
 H        -4.1079745785       -0.8563096279       -5.8042652818
 H        -5.6485154168       -1.6784597264       -6.4545487376
 H       -10.9113822316        1.6048577184       -2.8285025822
 H        -9.1479688066        1.4564097107       -2.8841397173
 H       -10.2593395798        0.0121675311       -2.7690874386
 H       -12.3374875995        0.8156924218       -4.5464355627
 H       -11.5711708815       -0.6860295433       -4.9165012949
 H       -11.7326344881        0.5160982064       -6.1788440366
 H        -7.1054702538        8.7274426690       -5.1283161560
 H        -5.7170725620        8.0123753261       -5.9106331766
 H        -6.4444199290        7.2587462378       -4.4733000130
 H        -9.3195468023        6.9458485035       -7.6086624227
 H        -8.0996148559        8.1802562508       -7.8524105855
 H        -9.1506343453        8.3258546913       -6.5368845896
 H         0.3252810666        5.5772103267       -8.5340210001
 H        -0.1323886157        4.6623687342       -9.8405922230
 H        -0.5041451012        4.0470611324       -8.1402699076
 H        -2.3960090547        7.7053710278       -9.4942385709
 H        -1.0156656977        7.1552853422      -10.4100484181
 H        -0.6810974954        7.7803878149       -8.8446496339
 H        -6.2285795208        3.6665328859      -14.0607312725
 H        -6.1037322129        5.4465351255      -13.9498428154
 H        -7.6888882271        4.7813820784      -14.1360162736
 H        -7.6041506958        5.9847650676      -10.6294619787
 H        -8.9107192217        5.5179913854      -11.7100005133
 H        -7.6358944687        6.5920984672      -12.2612261439
 Na       -5.6123197082        3.2248561743       -8.9581603588
 Na        1.1481804403       -6.9702386718      -10.2766534259
