232

 C        -7.8392133231        2.3766497373      -12.6463759360
 C        -7.0029020939        3.1259227645      -11.6248314542
 O        -6.9239971001        2.6936655809      -10.5302538245
 C        -6.4412714910        4.5403668956      -11.8539472687
 C        -5.0403588026        4.6474287057      -11.2657912761
 O        -4.7481153451        5.5678411662      -10.5201721818
 C        -4.0923776881        3.5374401196      -11.4072924663
 C        -2.6129065243        4.1391274646      -11.0175131104
 C        -2.7159801978        4.5680517377       -9.5426662235
 O        -3.1227710070        3.9066933621       -8.6005395847
 C        -1.9210017174        5.8741666479       -9.2753016024
 C        -2.4378308959        6.5094312536       -7.9245337656
 O        -1.6371240845        6.5883710406       -7.0266864083
 C        -3.9585365004        6.9971830143       -7.8547158039
 C        -4.4919200609        6.2022927628       -6.6379125468
 C        -5.9190716391        5.9412906218       -6.8744574437
 O        -6.1983239311        5.0761167495       -7.6895560231
 C        -7.1034094904        6.7843819580       -6.2787663916
 C        -7.8869267443        5.9087567109       -5.0955836026
 O        -7.2987570268        5.7617714870       -4.0434273835
 C        -9.3143062161        5.3160033866       -5.4304197298
 C        -9.8968982746        4.0079298030       -4.6818120338
 C       -10.7751590113        3.1444594340       -5.6554203628
 O       -11.2216161458        3.5798741696       -6.6806060467
 C       -10.8183525365        1.5593660276       -5.3540802851
 C        -9.3579828509        1.0390068232       -5.7619293746
 O        -8.4859591222        0.9298848002       -4.9415194256
 C        -9.2561669587        0.4316265163       -7.1322795286
 C        -7.9700533401       -0.2126531548       -7.5814100974
 C        -6.7406853066        0.5685833078       -7.3171128585
 O        -6.7239376833        1.7494932732       -7.4823831691
 C        -5.4231403787       -0.1811985927       -6.9461209082
 C        -4.4139892223        0.0127209742       -8.1574283631
 O        -4.0681914177        1.0248707034       -8.6360254278
 C        -3.5815707115       -1.3244261570       -8.4619324462
 C        -2.5434560115       -1.2439133142       -9.6004074636
 C        -1.0900251936       -0.9678095458       -9.0567396293
 O        -0.7052926403       -1.2161833175       -7.9539905675
 C        -0.0647057829       -0.3864275699      -10.1102133921
 C         1.4069409814       -0.8311484944       -9.6809997570
 O         2.2867879860       -0.1600189698       -9.2269167820
 C         1.5640720349       -2.3365038067       -9.7858816777
 C         2.9870267953       -2.8615984179       -9.3550720749
 C         3.0612638043       -4.3392484653       -9.1475060231
 O         2.1068579331       -5.0737076141       -9.0846663493
 C         4.4779891957       -4.8523216313       -8.9081198959
 C         4.4469112694       -6.4454122710       -8.9532617356
 O         3.8278980490       -7.0495998813       -9.8271271092
 C         5.6323236835       -7.1956807639       -8.1368210758
 C         5.4305339084       -8.6674744672       -8.2898380313
 C         4.4203989808       -9.1502141533       -7.1699746374
 O         3.8710736888       -8.3015342604       -6.4719338642
 C         3.8848513090      -10.6004827546       -7.1888405419
 C         2.5977451900      -10.3978669731       -7.9981091123
 O         2.7102706184       -9.9990339743       -9.1447873610
 C         1.1152791912      -10.4575741174       -7.3777963741
 C         0.0946953092      -10.6238823177       -8.4499277676
 C         0.0588254239       -9.6512404411       -9.6219052501
 O         0.1747036114       -8.4497151636       -9.3521863102
 C        -0.4279807609      -10.2508786642      -10.9846786703
 C         0.0735228423       -9.1489669130      -12.0253859953
 O         1.1676303821       -8.6807735010      -11.8417576392
 C        -0.9646034183       -8.7810208450      -13.1057492298
 C        -0.2263599186       -7.6492295557      -13.9268922500
 C         0.2023076808       -6.3641569032      -13.2059567929
 O         0.1653409713       -6.0702558698      -12.0308327982
 C         0.6786274572       -5.2017839741      -14.2272612073
 C        -0.3640814528       -4.0042772596      -14.0083252635
 O        -0.1689649591       -3.2961736027      -13.0799004739
 C        -1.7072807774       -4.0376692885      -14.8950695738
 C        -2.8214220824       -3.2641663884      -14.1567452218
 C        -4.0643118051       -4.0531042321      -13.7913761568
 O        -4.4871028051       -5.0639610143      -14.3077103875
 C        -5.1698564980       -3.1937263549      -13.0183584955
 C        -5.6977201095       -2.3804231889      -14.2538330991
 O        -5.1094423883       -1.3734549776      -14.5048916972
 C        -6.6978386568       -3.0351592556      -15.2580541924
 C        -7.2186087925       -2.1700429902      -16.3941925904
 C        -8.0969240407       -0.8965033892      -16.0469307193
 O        -7.7572651756       -0.0566815632      -15.2413184284
 C        -9.4647870904       -0.7964609195      -16.8643826231
 C        -9.3536036090       -1.2687007473      -18.4311511874
 O        -8.2408372049       -1.3927178555      -18.8817157243
 C       -10.5870377176       -1.3926096825      -19.2894861604
 C       -10.5277760889       -1.5835929113      -16.0323112127
 C        -9.8422529305        0.7170508056      -17.0425972204
 C        -6.2422874944       -4.0881977899      -12.4385578028
 C        -4.6585007621       -2.3024084530      -11.9642688897
 C         2.0323731897       -4.7469288530      -13.7778876951
 C         0.6361804370       -5.6341962545      -15.7629578186
 C         0.2767285144      -11.6143810495      -11.3338023542
 C        -2.0820639839      -10.5422346974      -10.8752476233
 C         4.8531551357      -11.5735419192       -7.8281697150
 C         3.6973163020      -11.0162838751       -5.6960197617
 C         5.4660986228       -4.2704540428       -9.9589780459
 C         4.9638188770       -4.4235635772       -7.4558533975
 C        -0.4602071531       -0.6653886898      -11.6264051490
 C        -0.1082441586        1.1910780616       -9.9041388487
 C        -4.6738624861        0.6732583202       -5.8031779065
 C        -5.5541061718       -1.5455770780       -6.4031424593
 C       -11.0152626795        1.1776367757       -3.8798563538
 C       -11.8987371729        0.9994447130       -6.1696353727
 C        -6.5927759307        8.1763360344       -5.6930367834
 C        -7.9710972061        7.0668141154       -7.4808937906
 C        -0.4289476718        5.6146168545       -9.1405068973
 C        -2.1117105650        6.9918163203      -10.3955761481
 C        -6.1301137105        4.9248545195      -13.3367817518
 C        -7.4299959808        5.5661916921      -11.2839484801
 H        -8.8827056997        2.6209857578      -12.5852081948
 H        -7.7464091181        1.3008492913      -12.4798847825
 H        -7.4824619738        2.5029559400      -13.6648283978
 H        -4.0484123706        3.0676747418      -12.3567135141
 H        -4.4747652403        2.8258761957      -10.6210910852
 H        -2.3144861121        4.9315728801      -11.7446635052
 H        -1.9847208295        3.2225644205      -11.1640561888
 H        -4.4335139913        6.6303150180       -8.7710867967
 H        -4.0755060855        8.0331925054       -7.8569874481
 H        -4.2773349831        6.7984399195       -5.6790996724
 H        -3.9510831815        5.1967297043       -6.7246806779
 H        -9.1053098340        5.0689252965       -6.5411795491
 H       -10.0429068958        6.0795287692       -5.3823472358
 H       -10.5039481951        4.3370982093       -3.8263575848
 H        -9.0321066619        3.4421278743       -4.2705095778
 H        -9.6560048299        1.2095623378       -7.8948295030
 H        -9.9937922265       -0.4104750664       -7.0921862713
 H        -8.0385487371       -0.2837368011       -8.6783185612
 H        -7.7769084811       -1.1957273105       -7.0901351502
 H        -4.2586961642       -2.1676100830       -8.5839692791
 H        -3.1562727266       -1.3826175857       -7.5056020800
 H        -2.8327335549       -0.5325834393      -10.3532744094
 H        -2.5565821891       -2.2033409358      -10.1529072567
 H         1.2428276117       -2.7481465200      -10.7101694416
 H         0.8359901203       -2.7839206857       -9.1509826700
 H         3.1861955174       -2.3812353476       -8.4028009489
 H         3.7391601139       -2.3284830882       -9.9114553135
 H         5.6677518879       -6.9612957185       -7.0858668754
 H         6.4246647064       -6.6971299424       -8.7366532718
 H         6.4324605160       -9.1635680608       -8.3371615523
 H         4.9160873149       -8.8615981145       -9.2775579027
 H         1.1476665451       -9.5093004271       -6.8109306472
 H         1.0101588614      -11.2663790564       -6.6467096079
 H        -0.8791463262      -10.6530410505       -7.8448144649
 H         0.1710344111      -11.5746676018       -8.8380596374
 H        -1.8020840384       -8.3539113196      -12.5221263360
 H        -1.3454045626       -9.6224417344      -13.6824199591
 H        -0.8849016166       -7.2075182436      -14.7254514875
 H         0.8721451532       -7.9075781394      -14.3346189657
 H        -2.0213221045       -5.0478260419      -15.0714662287
 H        -1.3338607173       -3.5439908894      -15.7776303965
 H        -3.1530595716       -2.4034054878      -14.7910414570
 H        -2.3406485506       -2.8533256175      -13.3425801741
 H        -7.5757936943       -3.2211081027      -14.6532448809
 H        -6.3272031748       -3.9530049448      -15.5394223766
 H        -7.8248340883       -2.8715569266      -17.0378990083
 H        -6.4232907195       -1.6235732964      -16.8547386952
 H       -11.0712997791       -2.4067432387      -19.2580125177
 H       -10.2537138302       -1.2181229469      -20.2965546922
 H       -11.3675707220       -0.6842065834      -19.0640473728
 H       -10.2914376930       -2.6611214363      -16.1717755883
 H       -11.5208396236       -1.3326161374      -16.4354592261
 H       -10.5265506161       -1.2313787792      -15.0029168945
 H        -9.0873728338        1.1448360808      -17.7325704979
 H        -9.8462990854        1.1961977831      -16.0480216401
 H       -10.7947143278        0.9170417867      -17.5811046110
 H        -7.1357006218       -3.4938136614      -12.3399540433
 H        -6.0632049484       -4.4574986629      -11.5063520109
 H        -6.2540577931       -4.8762152152      -13.1723313948
 H        -3.8411636219       -1.6277058388      -12.2397393835
 H        -4.3231196550       -2.9181201641      -11.1373520976
 H        -5.3989945134       -1.6435152536      -11.4393414672
 H         2.4943034123       -3.9025346046      -14.3805389127
 H         2.7778620094       -5.5438031577      -13.9218854079
 H         2.1322369694       -4.4671932296      -12.7360404852
 H         1.1924260597       -4.9817365483      -16.4417854017
 H        -0.3457103526       -5.7741348735      -16.0489662646
 H         1.1211426249       -6.6125890116      -15.8258400951
 H         0.4356179431      -11.8506689491      -12.4260309686
 H        -0.2281047545      -12.4292626846      -10.8025448880
 H         1.3526482273      -11.5506141786      -11.0016187418
 H        -2.4465367590      -10.9194784529      -11.8673455516
 H        -2.5714312563       -9.6432764652      -10.4827139245
 H        -2.1380643260      -11.3109531130      -10.0774074257
 H         5.6833695338      -11.8120110853       -7.1550415753
 H         5.1755329507      -11.2902943288       -8.8231990445
 H         4.4134657154      -12.5296689221       -7.9746684743
 H         4.6352517928      -11.0926321907       -5.1015478910
 H         3.2214312660      -12.0133692666       -5.5929574617
 H         3.0344638381      -10.3346985766       -5.0946947312
 H         6.4985652350       -4.6465562939       -9.8876686491
 H         5.4643405016       -3.1715904426       -9.8585285063
 H         5.1120475088       -4.5912316905      -10.9411020393
 H         4.5525847390       -5.0140088690       -6.5279875008
 H         4.7310794942       -3.3990914815       -7.2980615502
 H         6.0395249610       -4.3551115868       -7.2885480987
 H        -1.0645146309       -1.5988407201      -11.7229308505
 H         0.4633037628       -0.7521693154      -12.1700755028
 H        -1.0403691259        0.0990378193      -12.0025595835
 H        -1.0849014852        1.5161850449       -9.5886878413
 H         0.4372576410        1.7242009537      -10.7104553321
 H         0.6067747520        1.5278985519       -9.0693498803
 H        -5.1646217800        0.5363366350       -4.8592658390
 H        -4.7242941459        1.7300801879       -6.0560496002
 H        -3.6023128932        0.4997700919       -5.7287571887
 H        -6.3990361108       -1.4460591010       -5.7360438157
 H        -4.6385754499       -1.6430480573       -5.7829417874
 H        -5.6916925365       -2.2712889313       -7.1659652164
 H       -11.8247733167        1.7038609220       -3.4506055141
 H       -10.1837626144        1.3871675977       -3.2147086519
 H       -11.2977160455        0.0889812148       -3.7416863662
 H       -12.8060787343        1.4165238800       -5.8102272650
 H       -12.0078630787       -0.1014543087       -6.1702381710
 H       -11.8163161798        1.2809757524       -7.2110690103
 H        -7.4058427685        8.7467544242       -5.3091857136
 H        -5.9632890131        8.7678221916       -6.3307939758
 H        -6.0334338511        8.0239828013       -4.8168443824
 H        -8.3403586849        6.2135982859       -8.1316635124
 H        -7.4960851139        7.7271373610       -8.2616242524
 H        -8.9478566450        7.5030714066       -7.1588268037
 H         0.0737757430        6.4521231614       -8.5978075787
 H         0.0437682462        5.5068572407      -10.1333227588
 H        -0.2222482580        4.6900553467       -8.5520287428
 H        -3.0839290826        7.4709330231      -10.3081717191
 H        -1.9147200152        6.8673247499      -11.4598198417
 H        -1.3722104173        7.7017045697      -10.0788799346
 H        -5.9930072326        4.0181500909      -13.9381378339
 H        -5.3114610063        5.6333584801      -13.3349719631
 H        -6.9988754059        5.4218975796      -13.7884628700
 H        -7.8075217117        5.1800530112      -10.3879005396
 H        -8.1834312421        5.7987834052      -11.9535763592
 H        -6.9866105133        6.5142701611      -10.9369251883
 Na       -5.4613635045        3.3388265575       -8.6152608397
 Na        1.6997919703       -7.0013905350      -10.2461002227
