232

 C        -7.7036539804        2.2836285955      -12.6580969022
 C        -6.9231815081        3.1466145453      -11.6068192413
 O        -6.6957624206        2.5441110323      -10.5347970232
 C        -6.3845625332        4.5353811702      -11.8185391486
 C        -4.9789716648        4.5724849036      -11.1254589100
 O        -4.7273036069        5.4543574178      -10.3753683638
 C        -3.8558308147        3.5739944283      -11.5483345210
 C        -2.5008693431        3.9311425708      -11.0612302761
 C        -2.5512151467        4.6860747413       -9.7206791015
 O        -3.2077003301        4.1433401914       -8.8122760534
 C        -1.8101923054        5.9823715901       -9.3757666600
 C        -2.3008198101        6.6814124670       -7.8240843809
 O        -1.4004013405        6.8890047707       -7.1080440373
 C        -3.8790355459        7.0784543709       -7.6196990623
 C        -4.5949483295        6.1183451934       -6.5889946576
 C        -6.0774353305        5.9489413448       -6.9151646974
 O        -6.3699286821        5.0297458467       -7.6538820704
 C        -7.1984548619        6.8004231720       -6.2559416291
 C        -7.9393239231        5.8706053414       -5.2559732275
 O        -7.4238283741        5.6290675245       -4.2366011880
 C        -9.3966777700        5.5043399130       -5.5277322049
 C        -9.7527257734        4.1594690425       -4.7974787271
 C       -10.5688534063        3.2756855383       -5.7114147660
 O       -11.1412136756        3.7612481924       -6.6666355001
 C       -10.8079348615        1.6803360986       -5.3313031599
 C        -9.5780236599        0.9141240872       -5.8339763523
 O        -8.6268798949        0.8275636771       -5.0915029226
 C        -9.3484171466        0.4932071684       -7.2783595520
 C        -8.0219391638       -0.3056916750       -7.3818476962
 C        -6.7606353353        0.5884742695       -7.2899061051
 O        -6.8680270722        1.7531179051       -7.5919492060
 C        -5.3803611502       -0.0453075236       -6.8690105590
 C        -4.3221236807       -0.0512895725       -7.9586236409
 O        -4.2873902093        0.8899029297       -8.7784291061
 C        -3.3162149253       -1.1559991295       -8.2367689396
 C        -2.4507804859       -0.8596162162       -9.4069397436
 C        -0.9987466957       -0.7838115323       -8.9308179270
 O        -0.5844977646       -1.1324254521       -7.8199629226
 C        -0.0069967578       -0.2839667300       -9.9520194906
 C         1.3242063332       -0.9706535000       -9.5784488947
 O         2.2308244776       -0.3458303406       -9.0660730213
 C         1.5996102892       -2.4023373969       -9.9822559485
 C         3.0415934132       -2.8024914140       -9.5377426807
 C         3.1704123688       -4.2667108010       -9.2699677332
 O         2.1611874115       -4.9931094444       -9.2340168357
 C         4.6906447369       -4.8262933439       -8.7265430225
 C         4.6718197226       -6.4434550096       -8.8166871092
 O         4.0327720800       -6.9926687622       -9.7068380423
 C         5.9600652267       -7.1901790305       -8.2574835773
 C         5.5301040031       -8.6975481239       -8.1709889999
 C         4.3814510757       -8.9281465018       -7.2677278415
 O         3.9297857415       -8.0822853817       -6.5221932093
 C         3.6965836378      -10.3858392927       -7.2047947975
 C         2.4562094242      -10.3801369560       -8.0786009466
 O         2.6064106819      -10.1513980097       -9.2700244491
 C         1.1449531411      -10.4550099505       -7.2490911825
 C        -0.0201065063      -10.6774682079       -8.2034835664
 C         0.0649064385       -9.6978125834       -9.4030043493
 O         0.2709342563       -8.5155305751       -9.1391005354
 C        -0.4551268618      -10.1747637642      -10.8628064717
 C         0.0473829288       -9.2166193677      -12.0798601116
 O         1.2452477018       -8.9402111294      -12.2728135312
 C        -1.0422293773       -8.6776381549      -13.0456127844
 C        -0.5237149017       -7.9268774949      -14.1741012919
 C         0.1898231191       -6.6069960463      -13.4403182678
 O         0.1827435026       -6.4694026403      -12.2405931728
 C         0.6343007598       -5.2836229615      -14.4128549160
 C        -0.5191305521       -4.1977616490      -14.0879072053
 O        -0.3530530143       -3.4827079609      -13.0911157627
 C        -1.8703699194       -4.1860655952      -15.0332524511
 C        -2.9914025702       -3.2977755350      -14.4115782373
 C        -4.2083768930       -4.1073473974      -13.9386194895
 O        -4.2641943399       -5.3044951547      -14.2145922607
 C        -5.3030076834       -3.2809778371      -13.1702782907
 C        -5.8653691502       -2.2265221889      -14.1821579467
 O        -5.4008517860       -1.1020924740      -14.3693641303
 C        -6.9785658464       -2.8923131324      -15.0620806282
 C        -7.1958292221       -2.1958138244      -16.4467396981
 C        -8.1793548822       -1.0395890648      -16.1331545468
 O        -7.8618026677       -0.2318450421      -15.2697995310
 C        -9.5337535770       -0.7764444721      -16.9246570073
 C        -9.3694612470       -1.2810450510      -18.3567710437
 O        -8.2183941609       -1.3108083960      -18.7524836664
 C       -10.5777257178       -1.6447798633      -19.2077571871
 C       -10.6493853794       -1.4323373349      -16.0148509213
 C        -9.8327268863        0.7151704383      -16.9106733917
 C        -6.3427125577       -4.2375405696      -12.6425858664
 C        -4.7463114528       -2.4479927658      -11.9374333655
 C         2.0114406531       -4.8530098549      -13.8650546515
 C         0.7629130794       -5.6429623024      -15.9329723238
 C         0.1883882360      -11.5224788015      -11.1962274546
 C        -2.0392186698      -10.1890961171      -10.7591951986
 C         4.6910904194      -11.5027968406       -7.8356592518
 C         3.4723679621      -10.7883825327       -5.7253487117
 C         5.7222096736       -4.4609570879       -9.8625715918
 C         5.0182135742       -4.2158514009       -7.3963691787
 C        -0.3632008621       -0.5077251830      -11.4186428400
 C        -0.0017321996        1.2875935992       -9.6831829408
 C        -4.7238502714        0.6738436491       -5.6696266967
 C        -5.6231438025       -1.6108946803       -6.4668054332
 C       -11.0308499370        1.6359026315       -3.8139182189
 C       -12.0499403164        1.2302435651       -6.1004015233
 C        -6.6600442356        7.9152812824       -5.4509066680
 C        -8.1125558996        7.3897972007       -7.4230724303
 C        -0.2601117189        5.5561179772       -9.3216841840
 C        -2.1078238510        7.1011806830      -10.4518716633
 C        -6.1227243888        4.8345370778      -13.2509434330
 C        -7.2862099529        5.5793999655      -11.2206669696
 H        -8.4092678189        2.8395914356      -13.2857169540
 H        -8.3794982633        1.6325682055      -12.1279235971
 H        -7.0863291743        1.6140337343      -13.2134735912
 H        -3.9218115278        3.2666926668      -12.6362245416
 H        -4.0367188068        2.7057780295      -10.9626822924
 H        -1.8931451323        4.4696843864      -11.8089221969
 H        -2.0037887555        2.9940528805      -10.8312253728
 H        -4.3223588466        7.0677941583       -8.6130052614
 H        -3.9846984856        8.1714191544       -7.2589069411
 H        -4.3591631288        6.5132777961       -5.6288012302
 H        -4.1787453313        5.1581818071       -6.7651640763
 H        -9.5190288377        5.4509895934       -6.5609253450
 H       -10.0737901351        6.2511872436       -4.9987904724
 H       -10.2727597468        4.3427459255       -3.8597640699
 H        -8.8044625185        3.6483069845       -4.6421619427
 H        -9.2767443705        1.3681733087       -7.8387533003
 H       -10.1177285949       -0.1531629635       -7.6437172013
 H        -7.9804753369       -0.7195980940       -8.4126435439
 H        -7.8997764148       -1.1025729754       -6.6905440803
 H        -3.8981784687       -2.0936296607       -8.3601771027
 H        -2.6108328857       -1.2595513633       -7.3095734547
 H        -2.7064962666        0.0981317634       -9.9816013332
 H        -2.7253984780       -1.6162515258      -10.1708256553
 H         1.5114222776       -2.6301561705      -11.1114375846
 H         0.8182562916       -3.1263835629       -9.6298139414
 H         3.3519126129       -2.2641936207       -8.6307850124
 H         3.7484768882       -2.2628124811      -10.1751441116
 H         6.2717880655       -6.7124254642       -7.3234922760
 H         6.5969717000       -6.9252858073       -9.0749152613
 H         6.3930273105       -9.3594328127       -8.1362363576
 H         5.0906828984       -8.8725778852       -9.1581333135
 H         1.2166018348       -9.5649409359       -6.5737061255
 H         1.3010487689      -11.3559426965       -6.5930456192
 H        -0.9398589334      -10.4868911473       -7.6814080986
 H        -0.1309063967      -11.7667789849       -8.5316400004
 H        -1.8472447684       -8.1510668057      -12.5224726556
 H        -1.4628520513       -9.5880554938      -13.5479888130
 H        -1.3554278824       -7.5511112824      -14.7423752620
 H         0.1141978900       -8.5098042143      -14.7178429837
 H        -2.2927073601       -5.1845226200      -14.8859360101
 H        -1.5020022799       -4.0302208050      -16.0493671166
 H        -3.3589039771       -2.6796782257      -15.1997123238
 H        -2.5316845489       -2.5708096628      -13.6043133718
 H        -7.9748165987       -3.0612969471      -14.5649376947
 H        -6.4981416724       -3.9490312583      -15.2847525113
 H        -7.8109910670       -2.8839214634      -17.0430760804
 H        -6.3070281813       -1.8240331027      -16.9615364343
 H       -10.7101138583       -2.6933276851      -19.0719819256
 H       -10.4681599735       -1.4274044891      -20.2969870206
 H       -11.5225860085       -1.1921249859      -18.8726954937
 H       -10.6619796227       -2.5130341589      -16.1723759193
 H       -11.6078258609       -0.9179186008      -16.1065767854
 H       -10.2970708811       -1.1100910775      -15.0066855953
 H        -9.1027788669        1.1705367339      -17.5473953817
 H        -9.8611650048        1.0791445907      -15.8844064684
 H       -10.7230969161        0.9481706968      -17.4932517473
 H        -6.9810817004       -3.7882616252      -11.9158579943
 H        -5.7163355986       -4.8700046961      -11.9155727142
 H        -6.7372742203       -4.8550456440      -13.4659206945
 H        -4.3153926932       -1.4919264671      -12.2028730420
 H        -4.0030069463       -2.9299575654      -11.2417699486
 H        -5.5585763495       -2.1379877272      -11.3223014360
 H         2.3302430109       -3.8621273501      -13.9968461682
 H         2.8632216637       -5.3214855495      -14.3162226943
 H         2.0647111391       -5.0222908160      -12.7986591645
 H         0.6204250322       -4.7387479266      -16.5096000223
 H         0.1262793330       -6.4805117568      -16.3343521044
 H         1.8190628489       -5.8329734978      -16.0969546732
 H        -0.0910725523      -11.9111029402      -12.1358543136
 H        -0.0884947700      -12.3266606079      -10.4999707863
 H         1.2351091454      -11.3996914680      -11.1929247826
 H        -2.4308863484      -10.6743594294      -11.5863611218
 H        -2.3694099685       -9.1882124955      -10.6107733351
 H        -2.2269904576      -10.6787809835       -9.8511720280
 H         5.7006486963      -11.2727279452       -7.7555283304
 H         4.4427224179      -11.5484543693       -8.8768923780
 H         4.5090099606      -12.5183011537       -7.4614616538
 H         4.3947204533      -11.0247285172       -5.2369674513
 H         2.8273734379      -11.6632972954       -5.6084267308
 H         3.0458696847      -10.0354897601       -5.1131970805
 H         6.7160915668       -4.7199293995       -9.5073546487
 H         5.8274655117       -3.3903591838       -9.9297409457
 H         5.5841429749       -5.0868642361      -10.7510272196
 H         4.4892502204       -4.6042654243       -6.6288074570
 H         5.1543408013       -3.1125640402       -7.2823292206
 H         6.0482925404       -4.4875540189       -7.1120021336
 H        -0.3385498728       -1.5688834273      -11.5722106807
 H         0.4292356039        0.0440199214      -11.9600533394
 H        -1.4166121077       -0.2421148371      -11.7525089426
 H        -0.7839218842        1.6529229874       -9.0379973779
 H         0.1346571485        1.8207537823      -10.6470823775
 H         0.8600331833        1.6046904352       -9.2572770686
 H        -5.3325324998        0.5693448025       -4.7682528521
 H        -4.4562661393        1.7301913590       -5.7849240705
 H        -3.7594374787        0.1801274650       -5.4776724602
 H        -6.0718106861       -1.7061366604       -5.4924608344
 H        -4.6968686216       -2.0957545211       -6.4013582706
 H        -6.2687750495       -1.9308216189       -7.2869569869
 H       -11.9669685089        2.2054358250       -3.5379077057
 H       -10.2240917428        1.9432628760       -3.1166484851
 H       -11.2845422682        0.6428414618       -3.5062336942
 H       -12.9505970093        1.6357875343       -5.5806987359
 H       -12.2314241948        0.1703821255       -6.1145186737
 H       -12.0083286492        1.4599873572       -7.1619031189
 H        -7.4645044673        8.5837584616       -5.0545214436
 H        -5.9563493237        8.5756606451       -5.9528075440
 H        -6.1616718301        7.5446730221       -4.5343728491
 H        -8.6819266515        6.6574262383       -7.9553204999
 H        -7.6138775066        7.9560453595       -8.1639846539
 H        -8.8798088600        8.0084428190       -7.0013142265
 H         0.2375855564        6.4404205379       -8.9642269069
 H         0.2092413035        5.4128324482      -10.3465991683
 H        -0.0137148818        4.7152086032       -8.6556758110
 H        -3.1741924620        7.0773811895      -10.7481171671
 H        -1.5897848444        6.8916563810      -11.3837337210
 H        -1.7138789243        8.1122158183      -10.1988347589
 H        -5.4267701936        4.1369617398      -13.6678143140
 H        -5.9009187565        5.8991355747      -13.3110995070
 H        -7.0226039973        4.6879015698      -13.8273243818
 H        -7.2799155503        5.6494485534      -10.0965170168
 H        -8.2406978882        5.4827620502      -11.7841075019
 H        -7.0457398831        6.5829096737      -11.4915057734
 Na       -5.2228142241        2.9552164331       -8.8038062808
 Na        1.7244318636       -7.2301712141      -10.1275572001
