232

 C        -7.6646090104        2.4002899181      -12.7532783296
 C        -6.8509628037        3.0834617844      -11.5084987364
 O        -6.5864682123        2.4179708212      -10.5178819671
 C        -6.3672740215        4.5116082643      -11.9000681930
 C        -4.9281888720        4.6429437180      -11.2476691067
 O        -4.6181321621        5.4078584282      -10.3668748651
 C        -3.7189537379        3.5500652846      -11.6093627947
 C        -2.4180506502        4.0548664362      -11.0171630705
 C        -2.5853352998        4.7432662538       -9.5634586980
 O        -3.1777452843        4.1984470415       -8.6108572653
 C        -1.7791957879        6.0400205241       -9.3273464793
 C        -2.2155932054        6.6383509421       -7.9855247626
 O        -1.4286111949        6.9942684006       -7.1571665389
 C        -3.6898540666        6.9523064705       -7.6561251459
 C        -4.4642932666        5.9384100668       -6.6812126637
 C        -6.0253235062        5.8676519546       -6.9868903600
 O        -6.4128391031        4.9518261151       -7.6634169248
 C        -7.1957365266        6.9082787704       -6.2663474024
 C        -8.0493547898        5.9693269004       -5.3143457891
 O        -7.4488511884        5.4497578158       -4.4005964350
 C        -9.4780166872        5.4695464087       -5.5007394520
 C        -9.6664708246        4.1244538026       -4.8563745210
 C       -10.6239458236        3.2648954084       -5.7539141827
 O       -11.0943728942        3.7432867572       -6.7498182449
 C       -10.8828742803        1.8496486858       -5.3187154015
 C        -9.4766822175        1.0873101656       -5.8354862298
 O        -8.6286798873        0.7368650172       -5.0748458251
 C        -9.3390382755        0.5730691713       -7.3591945940
 C        -8.1248006873       -0.2738002280       -7.3066887456
 C        -6.8847371937        0.5563089359       -7.2229485743
 O        -6.7820934929        1.7068057194       -7.5691838489
 C        -5.4540803999       -0.1567381465       -6.8395740373
 C        -4.5006667552       -0.0511607759       -8.0929206027
 O        -4.4471296895        0.8767398833       -8.8083023234
 C        -3.3704996149       -1.1091698374       -8.1053944081
 C        -2.4032990613       -0.8559075936       -9.3076812299
 C        -0.9060976500       -0.7536954857       -8.9230657789
 O        -0.6657872829       -1.1274814301       -7.8079611953
 C         0.1342096321       -0.1809793066       -9.9536921197
 C         1.5694653746       -0.8869168360       -9.5699247087
 O         2.3874635611       -0.3356849215       -8.8910656221
 C         1.7622579874       -2.3215925450      -10.0377823590
 C         3.1103741124       -2.8671403178       -9.6087982156
 C         3.2992490924       -4.3552853833       -9.2576051024
 O         2.3332097196       -5.0652118858       -9.3069322818
 C         4.7114950349       -4.8315125009       -8.8230950917
 C         4.8221383631       -6.3803695227       -8.9507321627
 O         4.0415666872       -7.1156647414       -9.5674799387
 C         5.9763934393       -7.1497591816       -8.2952903656
 C         5.6308922960       -8.6846656142       -8.1371438694
 C         4.4301618951       -8.9139405919       -7.2490708546
 O         3.9454397770       -8.0315369144       -6.5368182997
 C         3.7860135537      -10.2965214828       -7.1817134054
 C         2.3877929587      -10.3086813681       -8.0213939457
 O         2.3328602816      -10.2698338935       -9.2372347439
 C         1.0506901692      -10.4218176722       -7.3052924053
 C        -0.2043348101      -10.6840756741       -8.2437670350
 C        -0.0408667085       -9.6678808776       -9.3120988437
 O         0.2746673526       -8.5241156912       -8.9596521599
 C        -0.4282719203      -10.0926698249      -10.7922779359
 C         0.0797996915       -9.2526691594      -12.0381469586
 O         1.2541571739       -9.0615105750      -12.2829415974
 C        -1.0551789581       -8.7904651790      -13.0120408270
 C        -0.6198892431       -7.8499652943      -14.1811344245
 C         0.0851316336       -6.6640883218      -13.6415162706
 O         0.3139975058       -6.6830734626      -12.4616541217
 C         0.5805695062       -5.3889401476      -14.4243748695
 C        -0.5721855660       -4.3599586266      -14.1188865857
 O        -0.5484387354       -3.5525933810      -13.2095625767
 C        -1.8921090342       -4.2876172126      -14.9815255923
 C        -2.9078664523       -3.2824262826      -14.4809344904
 C        -4.1483694018       -4.0560206150      -13.9676053223
 O        -4.1925990020       -5.2574803616      -14.0440989627
 C        -5.2917968216       -3.3426708401      -13.2090644492
 C        -5.9290513004       -2.3335855932      -14.2062206646
 O        -5.6222938589       -1.1812134992      -14.2180844600
 C        -7.0850126379       -2.9443011425      -15.0650376015
 C        -7.3040944720       -2.1330858707      -16.4263124575
 C        -8.1885800790       -0.9215546024      -16.0991835614
 O        -7.8670476135       -0.2406797190      -15.1493024723
 C        -9.5424641796       -0.6805067195      -16.8469396592
 C        -9.3857743417       -1.2605105478      -18.3036347593
 O        -8.3167385413       -1.3072251286      -18.8599872363
 C       -10.5987208906       -1.8151264285      -19.1132052322
 C       -10.7193583705       -1.5350121286      -16.1900012586
 C        -9.8122896259        0.8747090968      -16.9045863007
 C        -6.3534479273       -4.3252796339      -12.7052774954
 C        -4.6461270421       -2.5923870430      -12.0655607456
 C         1.9005143881       -4.8471972989      -13.8561093928
 C         0.7605369486       -5.6058422349      -15.9436005956
 C         0.0798580463      -11.5199972532      -11.1866346738
 C        -1.9726542455      -10.1709835580      -10.6663729509
 C         4.7188740722      -11.4998935828       -7.7796817349
 C         3.5366668168      -10.6491857171       -5.7326096252
 C         5.7821352595       -4.2680284852       -9.7857909150
 C         4.9918635011       -4.2354634273       -7.5190314269
 C        -0.4073186380       -0.4513395795      -11.3824986576
 C         0.1679587941        1.3623992133       -9.6401147091
 C        -4.9361487651        0.6710050224       -5.5741811382
 C        -5.5904163879       -1.6181963408       -6.3239432909
 C       -11.0299863761        1.8252929410       -3.8320824606
 C       -12.1498652410        1.4212927223       -6.0676624059
 C        -6.6213249629        8.0222098554       -5.3267154269
 C        -8.1715482798        7.5170103306       -7.3376885836
 C        -0.3210056169        5.6862579821       -9.3580092437
 C        -2.0032689551        7.0982017639      -10.4379480772
 C        -6.2350431965        4.7432464481      -13.4186266351
 C        -7.4057935951        5.4837884170      -11.1734388463
 H        -8.0722007094        3.0158204065      -13.5752768012
 H        -8.6450248224        1.9621619377      -12.4187600278
 H        -7.1430897421        1.5164028595      -13.1000480154
 H        -3.7504221126        3.6437591607      -12.7097296663
 H        -3.9200853522        2.5166424724      -11.3165889830
 H        -2.1263310291        4.8664189215      -11.6904965442
 H        -1.5980102839        3.4336142834      -10.9100143105
 H        -4.2931028225        7.1054259144       -8.5977555601
 H        -3.7380110756        7.9605474979       -7.1555712703
 H        -4.2553131367        6.2722591337       -5.6763765946
 H        -4.1076673762        4.9830558522       -6.8291150517
 H        -9.5731522988        5.2866563154       -6.6023493276
 H       -10.2049336459        6.0923448547       -5.0638250637
 H       -10.1131397573        4.2415071994       -3.8951350785
 H        -8.6119365894        3.6807802144       -4.7927857175
 H        -9.2526459367        1.4645414932       -7.9994421497
 H       -10.2149632026       -0.0649969745       -7.6010621670
 H        -8.0169796042       -1.0112816457       -8.1433709550
 H        -8.0118957547       -0.8503610449       -6.4114364023
 H        -3.8799882277       -2.1541014893       -7.9997040701
 H        -2.7737853270       -0.9376850908       -7.2387935673
 H        -2.6523159835        0.0970434812       -9.7776203075
 H        -2.6877963391       -1.5373674097      -10.0912961340
 H         1.5131853226       -2.5194932484      -11.1554788581
 H         0.9991808726       -2.9130926186       -9.6024957666
 H         3.4321500881       -2.1343891828       -8.8158983817
 H         3.8509626993       -2.4497006596      -10.3209993212
 H         6.0414220510       -6.6999324742       -7.3078005917
 H         6.8952340753       -6.9478866594       -8.9309370057
 H         6.5449615199       -9.0666666204       -7.6643717239
 H         5.6474904157       -9.2109924957       -9.0654300183
 H         0.9833046898       -9.4919060696       -6.7891781466
 H         1.2012596855      -11.2209937552       -6.5451675558
 H        -1.1334812407      -10.4289897768       -7.6442623501
 H        -0.3901017280      -11.5990026004       -8.5603878020
 H        -1.6096584204       -8.1547471410      -12.3132317783
 H        -1.7292197808       -9.5441384936      -13.3963720353
 H        -1.3964043281       -7.5597742578      -14.7704505882
 H         0.1297558110       -8.4014890475      -14.7266286933
 H        -2.4297596116       -5.2660812855      -14.8966511431
 H        -1.5329033691       -4.0882398594      -16.0527148358
 H        -3.0989311465       -2.6636743009      -15.3725741916
 H        -2.5502437789       -2.5846483245      -13.6528247428
 H        -7.9377149493       -2.7698300829      -14.3650641279
 H        -6.9911355184       -4.0233967773      -15.2492658931
 H        -7.8720329513       -2.8238056307      -17.2077119532
 H        -6.3486373317       -1.7466352253      -16.8658447116
 H       -10.7413917264       -2.8955026068      -18.9843727556
 H       -10.5211428579       -1.5551341429      -20.1797602138
 H       -11.5273798645       -1.3657549671      -18.7965038674
 H       -10.4692923467       -2.5909328081      -16.3607480689
 H       -11.6161099189       -1.2241751330      -16.6490918381
 H       -10.7985192123       -1.2423851658      -15.1496248211
 H        -9.0984118596        1.2772762679      -17.5699768315
 H        -9.8193655254        1.2882440787      -15.9464595767
 H       -10.7373852390        1.0556629905      -17.5053478422
 H        -7.0512030827       -3.8044412934      -12.0438797331
 H        -5.9273820507       -5.0479692450      -11.9991045649
 H        -6.7526861738       -4.8285433449      -13.6519949512
 H        -4.2321209870       -1.6480014189      -12.2856386031
 H        -3.8421408704       -3.1498158255      -11.5376392049
 H        -5.3941289543       -2.3321187445      -11.3456902863
 H         2.0750085499       -3.8332585942      -14.2491910502
 H         2.7981031914       -5.2484748839      -14.2560886836
 H         2.0146752338       -4.7703419516      -12.8111243103
 H         0.6065127058       -4.6571790501      -16.4983477004
 H         0.0638736497       -6.3411178426      -16.3185021787
 H         1.8496626604       -5.8909441445      -16.1865675751
 H        -0.4998037031      -11.8716548896      -12.0025784957
 H        -0.2617465457      -12.2717054206      -10.4602792022
 H         1.1492197607      -11.6738243813      -11.3394096387
 H        -2.2353669107      -10.5596853810      -11.6225141263
 H        -2.3540051616       -9.1972903806      -10.4793646638
 H        -2.2352487672      -10.7988968048       -9.8511882866
 H         5.8116833304      -11.3485581877       -7.5789724164
 H         4.5743032903      -11.5784170137       -8.9085602883
 H         4.3338083708      -12.4783936251       -7.3948003824
 H         4.4344138944      -10.5737173582       -5.2073477871
 H         3.1048058983      -11.6427268451       -5.5938076275
 H         2.8877408464       -9.9803346776       -5.2321364212
 H         6.7016032769       -4.6522724117       -9.3216146943
 H         5.9738241575       -3.2087343544       -9.6276906814
 H         5.7723540880       -4.7286497387      -10.7328133516
 H         4.2192850923       -4.4144650937       -6.7213683624
 H         5.3470223897       -3.2477736010       -7.5014099968
 H         5.8183794266       -4.7059483409       -7.0808969222
 H        -0.3437983964       -1.5558028624      -11.6770614462
 H         0.1992382394        0.2502039971      -11.9752507414
 H        -1.4346159683       -0.2576346171      -11.5165365090
 H        -0.6059523052        1.6997897680       -9.0410480874
 H         0.3000919543        1.9989780276      -10.5689781217
 H         1.0567734938        1.6885969662       -9.0739671364
 H        -5.6885342056        0.8550416080       -4.8405197813
 H        -4.6296199394        1.6512134259       -5.9955187333
 H        -4.0198721321        0.3115026158       -5.0586657489
 H        -6.0330394868       -1.5441327110       -5.3428715872
 H        -4.6090672531       -2.0291521545       -6.0737021705
 H        -6.2096763195       -2.1587781116       -7.0404302762
 H       -11.8192226439        2.4415387473       -3.5369334527
 H       -10.1211863094        2.1271346222       -3.2971703428
 H       -11.2854936712        0.8543446350       -3.3943690603
 H       -13.0488518264        1.8405724927       -5.6269691916
 H       -12.3024145132        0.3175099677       -5.9565142208
 H       -12.0603240001        1.4992145732       -7.1271155535
 H        -7.3887827034        8.8023158767       -4.9812921073
 H        -5.7903837829        8.6489490300       -5.7039928159
 H        -6.2647580550        7.5579357153       -4.4053917601
 H        -8.6156563944        6.8499515468       -8.1002263728
 H        -7.6704440529        8.3279907256       -7.7995499737
 H        -9.0307207929        8.0033540083       -6.8802989096
 H         0.2290977964        6.5690886488       -9.3046478086
 H        -0.0876554269        5.3608355961      -10.3720855996
 H         0.0033705895        4.9799162255       -8.6572985635
 H        -3.0849893060        6.9889632730      -10.7042926248
 H        -1.4981736059        6.9096309126      -11.3337902770
 H        -1.6854038828        8.1226439329      -10.1833705037
 H        -5.5319160880        4.0756671079      -13.8813934495
 H        -6.1062083265        5.7998993279      -13.5782844821
 H        -7.1853695342        4.5608685270      -13.9032175122
 H        -7.1938570684        5.7436012029      -10.1174316594
 H        -8.3928207522        5.2863183813      -11.5239492575
 H        -7.2952202212        6.5283588621      -11.6770020150
 Na       -5.1755138839        2.9528502698       -8.7493458478
 Na        1.7391680459       -7.3063281989      -10.2761969767
