232

 C       -21.2209492983       -8.1465456124       -4.2180968562
 C       -20.7697040970       -6.7099493573       -3.8420958107
 O       -19.9334673421       -6.4929163426       -2.9600819297
 C       -21.2958728245       -5.4617501330       -4.7270543550
 C       -20.4069569142       -4.1294042039       -4.6133688123
 O       -20.2764667516       -3.6182884931       -3.5211913773
 C       -19.9363237615       -3.2644019420       -5.8416892387
 C       -18.6664164080       -3.7262631590       -6.5006520717
 C       -17.6483407354       -4.0848732252       -5.3322457216
 O       -17.8093902532       -5.0779071801       -4.6428973091
 C       -16.3568193070       -3.2007025422       -5.1597312060
 C       -16.1340807595       -3.2704259240       -3.5390276488
 O       -17.0401168939       -2.8343875142       -2.8472509843
 C       -14.7793660730       -3.7813314935       -3.0000748876
 C       -14.6824239612       -3.5335542324       -1.5240238393
 C       -15.5888528097       -4.3116212707       -0.5388206686
 O       -16.7184902733       -4.7066997885       -0.7908857604
 C       -15.0330151184       -4.5469592067        0.8940289152
 C       -13.5228787482       -5.0082992827        0.7804994034
 O       -12.5813180540       -4.5794259892        1.4109695257
 C       -13.3022824100       -6.1876762792       -0.1278011277
 C       -12.0050342227       -6.1902436943       -1.0869010523
 C       -12.4104442360       -6.8448807621       -2.4908319454
 O       -13.3123332456       -6.2842630542       -3.1249358664
 C       -11.6310313349       -8.0786762460       -2.9598006864
 C       -10.1872790962       -7.5688920084       -2.9815983578
 O        -9.6403570240       -7.3551893216       -1.8683495996
 C        -9.4948390423       -7.6119420274       -4.3184135779
 C        -7.9951115364       -7.0707624206       -4.4423155605
 C        -7.7020452347       -5.5955921007       -4.1582941640
 O        -8.6070593656       -4.7696724180       -4.2988786974
 C        -6.2325398796       -5.1249812497       -3.9586628172
 C        -5.2974616348       -5.5586535222       -5.1584937366
 O        -5.3782568496       -6.6970458344       -5.5857173110
 C        -4.4206776090       -4.4719825116       -5.8194958287
 C        -2.9999142231       -4.9060981614       -6.2429507963
 C        -2.0617186025       -3.6513815021       -6.6819942309
 O        -2.5921660779       -2.5835256666       -6.8966339242
 C        -0.6390466463       -4.0461866807       -6.9869872517
 C        -0.2166566102       -5.2469508276       -7.9492597262
 O         0.7113629971       -5.9217582963       -7.5881464889
 C        -1.0666532838       -5.5576872430       -9.2412397147
 C        -0.2481194323       -6.1666318957      -10.3546869596
 C         0.7170879940       -5.1976915963      -10.9654394764
 O         0.5614260083       -4.0177754176      -10.5681916523
 C         1.8423227157       -5.6497195777      -11.8853566584
 C         2.1065873492       -4.6655387338      -13.1179430397
 O         2.2613852957       -5.1850805778      -14.1979042606
 C         2.1753353660       -3.1560160752      -13.0851379397
 C         2.6148389718       -2.4776341291      -14.3800513124
 C         2.9460629553       -0.9861158147      -14.4652949120
 O         2.4592458704       -0.4033372208      -15.4056787920
 C         4.0604573176       -0.2203571835      -13.5692660139
 C         4.4582537446        1.1344021230      -14.2248941757
 O         5.3943311455        1.1551375318      -15.0321925008
 C         3.7663415770        2.4216072034      -13.7851629682
 C         4.5629850470        3.2255725157      -12.6688548948
 C         5.5168074464        4.1548933530      -13.3951015274
 O         5.6920753646        4.1138210154      -14.5754252157
 C         6.3590674879        5.3092569884      -12.5411693193
 C         6.5594569916        6.6135347546      -13.4681619644
 O         5.7552995449        7.4933448753      -13.5660236793
 C         7.8666052595        6.6632837680      -14.3335571099
 C         7.4845046921        7.2472911884      -15.7537382362
 C         6.9776656982        6.1730261581      -16.7644508596
 O         7.0335297912        4.9474744301      -16.5347411167
 C         6.3830240856        6.7350093087      -18.1314115569
 C         7.4322122630        6.3604481647      -19.2716174112
 O         7.9397837074        5.2786127526      -19.1455628394
 C         7.8023986273        7.2399474862      -20.4114873179
 C         8.9351096939        6.5524408643      -21.1776938097
 C         8.3100415193        5.5827899960      -22.1435163177
 O         7.2360974064        5.8269541760      -22.6517009498
 C         9.0607636775        4.3054480733      -22.5795043527
 C         8.8760996745        3.0820583202      -21.5123992217
 O         8.0236940159        2.2654638464      -21.8241055166
 C         9.8025897085        2.9331562204      -20.3099355833
 C         9.6465136924        1.5405249973      -19.7251783499
 C         8.3040854564        1.4148741632      -18.9214737789
 O         8.0626010051        2.3151593826      -18.1246700899
 C         7.4163120257        0.1438723883      -19.1671618211
 C         6.0243245270        0.8157741259      -19.3364263076
 O         5.4407742879        1.4985501443      -18.5315525236
 C         5.4119490773        0.6533075925      -20.7569766054
 C         7.9709183211       -0.8701855924      -20.2085724404
 C         7.4093692736       -0.6184677999      -17.7521149099
 C         8.3904804074        3.9056950965      -23.9119144155
 C        10.5024524341        4.5379401070      -22.7277240333
 C         5.0358934875        5.8925579214      -18.3912756982
 C         5.9639045668        8.2060879510      -18.0495899223
 C         5.6208446432        5.5572519366      -11.1547964961
 C         7.6840800057        4.5675017085      -12.1664497423
 C         3.4889045027       -0.1053689808      -12.0900156886
 C         5.4448725295       -1.1343879883      -13.4796972783
 C         3.2016495559       -5.5638505425      -11.0297999670
 C         1.6212657938       -7.0201855349      -12.5147936927
 C         0.0463011092       -2.7420534871       -7.4219035726
 C         0.0786591207       -4.3733083412       -5.5897307385
 C        -6.2193023786       -3.5724279400       -3.8760961796
 C        -5.5181545926       -5.6107771746       -2.6771831206
 C       -11.7288440896       -9.1722482654       -1.8338567982
 C       -12.3026831489       -8.4093774641       -4.3670452338
 C       -15.0218619279       -3.1056791874        1.4896316946
 C       -15.9140133579       -5.3942790096        1.7902986572
 C       -15.3120529194       -3.9638708577       -6.0485483692
 C       -16.3543583142       -1.7361678956       -5.5405957993
 C       -21.4279588871       -5.8788661271       -6.2024499670
 C       -22.6489908201       -5.0302904863       -4.0949303610
 H       -20.9814625935       -8.7504190112       -3.3364784523
 H       -20.6716169004       -8.4300627251       -5.0727416081
 H       -22.2743975552       -8.1740660583       -4.4287059880
 H       -19.7446332474       -2.2426798162       -5.5076768933
 H       -20.7111170260       -3.2389476020       -6.5872523820
 H       -18.2254916041       -2.9367081738       -7.1184517893
 H       -18.8336246407       -4.5711023150       -7.1494509150
 H       -14.0812393768       -3.1191014803       -3.4553331157
 H       -14.5087844311       -4.8654282929       -3.2217613456
 H       -15.0353039058       -2.5579520587       -1.2141739770
 H       -13.6468744698       -3.6791984380       -1.1820858057
 H       -14.1429249223       -6.3645854134       -0.8151153020
 H       -13.3157522915       -7.0850692672        0.5382055203
 H       -11.1268776563       -6.6462144825       -0.6016748244
 H       -11.8171071890       -5.1559767842       -1.3562140552
 H        -9.9881830460       -7.1177606594       -5.1420068785
 H        -9.4775610173       -8.6293566252       -4.6528043704
 H        -7.7825460880       -7.2646756291       -5.4628293113
 H        -7.2557115123       -7.6728666166       -3.9032920031
 H        -4.2621060818       -3.7133905874       -5.0678962891
 H        -4.9774263096       -3.9732483881       -6.5817395018
 H        -2.9749748637       -5.7216222827       -7.0164097409
 H        -2.4928005452       -5.3565070466       -5.3669929984
 H        -1.5247582125       -4.6966006783       -9.5222884343
 H        -1.9540486121       -6.2870208559       -9.1360126399
 H        -0.8907400879       -6.6533968023      -11.0841418679
 H         0.2591484154       -6.9767872531       -9.9298775140
 H         2.8578852500       -2.9111221537      -12.2737077199
 H         1.2540210395       -2.8427001843      -12.7026829586
 H         1.6992599342       -2.5777459290      -15.0625631569
 H         3.3827115782       -3.1504599916      -14.7855963359
 H         2.7471381662        2.2945710695      -13.4403562888
 H         3.7944620882        3.1147579099      -14.6427608779
 H         5.2236503260        2.5397503525      -12.0792835678
 H         3.8150798063        3.7120072107      -12.0591416478
 H         8.3795738717        5.7512318999      -14.5405137246
 H         8.5667655214        7.3507258680      -13.8904841193
 H         8.2228851107        7.8420941788      -16.2401508008
 H         6.6334578210        7.9587000041      -15.5876237225
 H         8.1561714188        8.2275304570      -20.2084586858
 H         6.9544116538        7.5055911730      -21.0259483129
 H         9.6128842119        6.0576109014      -20.4199012380
 H         9.5724225125        7.3321202691      -21.5833901846
 H         9.5330093075        3.7004378581      -19.5782349154
 H        10.8390044159        3.2013801441      -20.5379268733
 H        10.5740089558        1.4745957205      -19.1204788493
 H         9.7953341314        0.9195886955      -20.5362137654
 H         5.7435912679       -0.3223555894      -21.0735348314
 H         5.6850952737        1.4615545797      -21.4390490178
 H         4.3509362424        0.5723161243      -20.8856922441
 H         7.5634753547       -1.8441870371      -20.0658031090
 H         9.0946945352       -1.0654058104      -20.2879135480
 H         7.7339278147       -0.6497570713      -21.2348827016
 H         8.2801053348       -1.3015091716      -17.5688677581
 H         6.5771891487       -1.3512384613      -17.6153555285
 H         7.3305318715        0.1303273533      -16.9394471403
 H         8.6161696776        2.7987553828      -24.1824927046
 H         8.6090500916        4.6071214156      -24.7320481770
 H         7.3567129111        4.1594528180      -23.8359223198
 H        10.8782041889        3.5829465716      -23.0320836892
 H        11.0140600690        4.8632604816      -21.8215051141
 H        10.7240758826        5.2580158153      -23.4638032249
 H         4.2505908524        6.2678163195      -17.7588181323
 H         5.2697323559        4.8581758935      -18.0624994974
 H         4.6660665347        5.9963286591      -19.4455386858
 H         6.7483725324        8.9591067353      -17.9651783677
 H         5.3604368660        8.3077730635      -17.1504120291
 H         5.3852730511        8.5671731073      -18.9009698189
 H         6.3264460611        6.2188950578      -10.6409572214
 H         5.3332053728        4.8310916206      -10.3849506020
 H         4.7152162810        6.0993080730      -11.1802745860
 H         7.3077544172        3.5869017761      -11.8330916785
 H         8.2198219666        4.8822443187      -11.2782953977
 H         8.4300727356        4.4475044799      -12.9258215552
 H         4.0151011858        0.4989895901      -11.3705251885
 H         3.3771566633       -1.1297276519      -11.6880294234
 H         2.4440616170        0.3175915585      -12.3504413627
 H         5.2521356006       -1.8630891581      -12.7821477396
 H         6.2800633230       -0.4006320984      -13.3897626290
 H         5.5058680610       -1.5127653848      -14.4549173260
 H         3.2538464168       -6.3827574582      -10.2977830596
 H         3.1305868074       -4.6394087347      -10.4021464844
 H         4.0807953436       -5.4574632899      -11.6597675461
 H         0.6924865358       -7.0249591572      -13.0244549568
 H         1.6735883334       -7.8861272294      -11.8238270098
 H         2.3002896539       -7.1560452147      -13.3487370872
 H        -0.1918549344       -2.1096251885       -6.5732725004
 H        -0.4505099858       -2.3559593048       -8.3369977612
 H         1.1421200898       -2.8326409280       -7.5363878760
 H        -0.4683939886       -5.0559342006       -4.9828539151
 H         0.2872557928       -3.4422951291       -4.9953269595
 H         1.0555336763       -4.8502471361       -5.8369160310
 H        -6.5881093926       -3.0601678038       -4.7161293834
 H        -5.2872167254       -3.2596583305       -3.5161252526
 H        -6.9466570675       -3.3005170606       -3.0757945506
 H        -6.0452862269       -5.3640473486       -1.7555135462
 H        -4.5344082061       -5.1809249144       -2.6319781706
 H        -5.3659594769       -6.7040997989       -2.8575583907
 H       -12.7886041126       -9.4682571650       -1.5777091723
 H       -11.2394479499       -8.8028826479       -0.9796231150
 H       -11.1649837597      -10.0110926583       -2.1168875895
 H       -13.2521056476       -8.7824284525       -4.3917420445
 H       -11.7440028860       -9.1331121296       -4.9523691582
 H       -12.4479783897       -7.4592206737       -4.8879418257
 H       -13.9854924229       -2.6483802504        1.4818584057
 H       -15.3382732438       -3.1981447591        2.4878709625
 H       -15.7400749885       -2.3996062997        1.0019597748
 H       -15.3324178391       -6.1144594008        2.3237313186
 H       -16.5652722244       -6.0648072936        1.2086699091
 H       -16.4991773738       -4.8057707540        2.4665867204
 H       -14.6592788842       -4.5948795968       -5.4803558204
 H       -14.7013348063       -3.1780157651       -6.5351040855
 H       -15.7590748347       -4.4470237464       -6.9249155147
 H       -17.1436503492       -1.2061055554       -5.2352370988
 H       -16.2536150325       -1.5713792459       -6.6352429846
 H       -15.4829885997       -1.2904521154       -4.9958617288
 H       -20.4552101979       -6.2820814436       -6.5783094599
 H       -21.9748275461       -5.0586909384       -6.7207623253
 H       -22.2114776236       -6.5887903118       -6.1289819686
 H       -23.2804445759       -4.4248690746       -4.7882974993
 H       -22.4017957705       -4.2715314282       -3.3561505607
 H       -23.2023302043       -5.8827351414       -3.7102650852
 Na      -18.4522544266       -4.7236759682       -2.2880788508
 Na        6.3474321703        2.6199136263      -16.6619698895
