232

 C        -7.6270808337        2.1113730771      -12.6497155411
 C        -6.5696754818        2.8254951125      -11.6617040603
 O        -6.0906571486        2.2995921307      -10.6990689696
 C        -6.2550759561        4.3179332971      -11.8655403066
 C        -4.9064676073        4.7336431174      -11.3662288585
 O        -4.6649974520        5.7626699512      -10.7223807184
 C        -3.8040237631        3.6780033051      -11.5883459037
 C        -2.4279021416        4.3217529102      -11.1251095944
 C        -2.5141554859        4.7691750353       -9.5743860980
 O        -3.1252218442        4.0208750762       -8.7999556240
 C        -1.7743782458        6.1669276461       -9.1394046553
 C        -2.4500692161        6.8267954568       -7.8963047464
 O        -1.6819604780        7.0237135273       -6.9529564235
 C        -3.9412630520        6.8938278969       -7.8693288138
 C        -4.3434289139        5.8522630452       -6.7933735773
 C        -5.8434116159        5.9319818512       -7.0064369693
 O        -6.3433452738        5.2642947035       -7.8925158631
 C        -6.8715530968        6.9237936490       -6.2462164770
 C        -7.6569488817        5.8507054540       -5.4603062084
 O        -7.0840848028        5.2112486475       -4.5302920271
 C        -9.0846026650        5.4793102228       -5.9038774211
 C        -9.7666573838        4.4574623459       -4.9785538079
 C       -10.5484144433        3.3815646337       -5.9064428090
 O       -10.8058032448        3.6483956268       -7.0473657323
 C       -10.9817479315        1.9837613670       -5.2997557726
 C        -9.7514508009        1.1108751499       -5.6545891708
 O        -8.7981777294        0.9257112258       -4.9383592900
 C        -9.6394099395        0.5472403621       -7.1780620607
 C        -8.2953759609       -0.1922314328       -7.2879444691
 C        -6.9592382526        0.6013930263       -7.2978496492
 O        -6.9371881495        1.7669540679       -7.6613992340
 C        -5.6151236853       -0.1245484742       -6.7681746337
 C        -4.5228050708       -0.0034283412       -7.9710163111
 O        -4.5656693926        0.8586172592       -8.7640680897
 C        -3.2429473336       -0.9643227986       -7.8430629579
 C        -2.2334205720       -0.5796591543       -8.9168044125
 C        -0.7621948785       -0.7577279647       -8.6007522498
 O        -0.3962420332       -1.1780682215       -7.5448832693
 C         0.3231030274       -0.1810173118       -9.6696882826
 C         1.7949667000       -0.9092028895       -9.3891286845
 O         2.7035261938       -0.3457446974       -8.8220262994
 C         1.8909922815       -2.3946802342       -9.8985770952
 C         3.3692083986       -2.8715815028       -9.8599647298
 C         3.4195154378       -4.4089786404       -9.7638123378
 O         2.5332867508       -5.0636673878      -10.2202752780
 C         4.6167757283       -4.9795237197       -9.0414984750
 C         4.7620085775       -6.4998856195       -9.0795737455
 O         4.1570515387       -7.2338626580       -9.8468002438
 C         6.0019878565       -7.2178882575       -8.3064556407
 C         5.5793149917       -8.6668115694       -8.0562613348
 C         4.3107367011       -8.7852457766       -7.3098831360
 O         3.7013791642       -7.8379794905       -6.8698218636
 C         3.7539370909      -10.2514629313       -7.0483526081
 C         2.3891989717      -10.3150068477       -7.8923062386
 O         2.4517564106      -10.3668594824       -9.1084657009
 C         1.0958762046      -10.0357789810       -7.1732673355
 C        -0.2197056609      -10.2525245152       -8.0332126845
 C        -0.1164651389       -9.5651979145       -9.3232634425
 O         0.4277116413       -8.4602943933       -9.3478005764
 C        -0.6719467880      -10.2828918965      -10.6192703313
 C        -0.0887820800       -9.4679321738      -11.8340746782
 O         1.0856973401       -9.2612810433      -11.9356278986
 C        -0.9949951242       -8.8518183062      -12.9297244522
 C        -0.2333774269       -7.8749654876      -13.9445710272
 C         0.2978280438       -6.5142225313      -13.4454030249
 O         0.7528655916       -6.3819650054      -12.3318337897
 C         0.3897949692       -5.4264961702      -14.4990454635
 C        -0.8546049990       -4.4035858239      -14.2930533233
 O        -1.0066906939       -3.8201357590      -13.2732085494
 C        -1.9437574780       -4.2897690475      -15.3478319481
 C        -3.1919853220       -3.6131928828      -14.9778038451
 C        -4.1163934400       -4.4216970534      -13.9810828981
 O        -4.0115594520       -5.6141961725      -13.8334394429
 C        -5.2615517215       -3.6187190307      -13.0997748483
 C        -6.1906711717       -2.5996323590      -14.0201669178
 O        -5.6962529426       -1.5128722109      -13.9600394380
 C        -7.1868917407       -2.9454470411      -15.0590860975
 C        -7.4857489859       -2.0399196540      -16.2984788475
 C        -8.4682792275       -0.8549883301      -15.9574542476
 O        -8.1971231689       -0.1210551288      -15.0431248048
 C        -9.8017399868       -0.6478513278      -16.8955626347
 C        -9.5220322509       -1.2214939735      -18.3523718583
 O        -8.5210200772       -0.7548754419      -18.8620426713
 C       -10.5752730282       -2.0071528422      -19.1475972929
 C       -11.0275259893       -1.3932000449      -16.1879958782
 C       -10.1389429464        0.8379416237      -17.2284288619
 C        -6.2559509097       -4.6281846516      -12.4229347818
 C        -4.5627097765       -2.7814173675      -11.9824654371
 C         1.6605128154       -4.6293907080      -14.3164727044
 C         0.5201289534       -6.0625241101      -15.9366121737
 C        -0.2823488478      -11.7724759790      -10.7223068020
 C        -2.2727090449      -10.3270213312      -10.5862603352
 C         4.5952015585      -11.3224608658       -7.6444371457
 C         3.6608606357      -10.5659291263       -5.5306011360
 C         6.0106011534       -4.4887753225       -9.6326860625
 C         4.7206407889       -4.5381366498       -7.5170875145
 C        -0.0680336385       -0.3560265052      -11.1675747264
 C         0.4658309430        1.3334884190       -9.2901755972
 C        -5.0149499840        0.7863228650       -5.6403088366
 C        -5.8688369143       -1.4566504185       -6.2102765613
 C       -11.3799612580        2.2192256673       -3.7833450673
 C       -12.1942971236        1.3872279087       -6.0749670689
 C        -6.1167217685        7.9606397300       -5.3083489865
 C        -7.6250937597        7.7361233322       -7.2818249500
 C        -0.2261288547        6.0138099310       -8.9899160995
 C        -1.9381450238        7.1608169473      -10.2932819513
 C        -6.2715378419        4.5995186577      -13.4751887555
 C        -7.5460416466        5.1674966683      -11.4350635754
 H        -8.2559692902        2.7240511782      -13.2477064652
 H        -8.2888404530        1.4457915320      -12.0698720683
 H        -7.1465416436        1.3752083290      -13.2741945409
 H        -3.6163683595        3.4166010955      -12.6421630522
 H        -3.9895488052        2.6952017878      -11.1251962860
 H        -2.1099705899        5.1062494473      -11.8194343612
 H        -1.7102387907        3.5621823273      -11.2776938593
 H        -4.4533114433        6.6338713346       -8.8666834682
 H        -4.3630674550        7.8407317541       -7.4740137200
 H        -4.0091830256        6.1855051681       -5.8505720351
 H        -3.8992477514        4.9375910598       -6.9896737843
 H        -9.1084821201        5.0037746712       -6.9230904698
 H        -9.6805544354        6.3340237003       -5.8049395261
 H       -10.5157433617        4.9634525350       -4.4614284245
 H        -9.0768755563        3.8641045658       -4.3272260741
 H        -9.6538684478        1.4724008460       -7.7052921683
 H       -10.4731724196       -0.0935690132       -7.3545055459
 H        -8.2235600438       -0.8680552047       -8.1569745733
 H        -8.0627013216       -0.8866691893       -6.5370935021
 H        -3.4846255581       -2.1130265871       -8.1037096506
 H        -2.8688483974       -0.9029350699       -6.8115728791
 H        -2.5022254199        0.4859435288       -9.2191234102
 H        -2.5518570377       -1.1848070985       -9.8176606568
 H         1.5213892468       -2.7133711307      -10.9369250401
 H         1.3591139763       -3.0803036046       -9.2219946834
 H         3.9563988218       -2.2362969385       -9.1535520504
 H         3.8058611447       -2.4547033293      -10.7768119005
 H         6.4095432836       -6.6944685476       -7.4723305045
 H         6.6364352700       -7.1423969097       -9.2059156817
 H         6.4132612439       -9.0230644962       -7.4643304659
 H         5.7100059576       -9.2327893902       -8.9361289538
 H         1.0959852627       -8.9334056767       -7.1445351238
 H         0.9888055556      -10.4699014716       -6.1289217967
 H        -1.0194562819       -9.5916308982       -7.5920557299
 H        -0.6749133877      -11.1804540803       -8.0465646341
 H        -1.6553674611       -8.1350350777      -12.3949149594
 H        -1.6170458856       -9.5832269706      -13.4810456033
 H        -0.7603862444       -7.8188609557      -14.8077729481
 H         0.7189181642       -8.2963825790      -14.1732754580
 H        -1.9645912683       -5.3145476484      -15.6746507433
 H        -1.4704182514       -3.7193101921      -16.1772125373
 H        -3.7711559204       -3.3874385227      -15.9265057583
 H        -2.9344599596       -2.5988733551      -14.5667825340
 H        -8.2641507832       -3.1472561438      -14.6762687168
 H        -6.8906221055       -3.9663770791      -15.4892366520
 H        -7.9076530479       -2.6911253976      -17.1585639418
 H        -6.6383462414       -1.5974770815      -16.8359914477
 H       -11.3521616229       -2.5649074008      -18.5641848346
 H       -10.0942242594       -2.7029883085      -19.8162294252
 H       -11.0572838786       -1.2819022175      -19.7930074443
 H       -10.7607675944       -2.4712559229      -16.0224402074
 H       -11.8879442692       -1.2193416784      -16.8341879705
 H       -11.0790376773       -0.9011791149      -15.2164208083
 H        -9.3049241153        1.2372125588      -17.8195920198
 H       -10.2694538231        1.4528596039      -16.3466167155
 H       -11.0661975506        0.7564311051      -17.8740842490
 H        -7.0984822390       -4.0508571371      -11.9120433391
 H        -5.7679802019       -5.3715918649      -11.7859656989
 H        -6.7784804247       -5.1865723198      -13.2632591084
 H        -3.7192626483       -2.1875554152      -12.3037369412
 H        -4.0419357917       -3.4129599694      -11.2518758953
 H        -5.2623302964       -2.0972899561      -11.4687094492
 H         1.8443235861       -3.8855050302      -15.1147454010
 H         2.5388327756       -5.2274906712      -14.3092169338
 H         1.7928332182       -4.0520188550      -13.4527378664
 H         0.5551153320       -5.3633334239      -16.7778150846
 H        -0.3126568492       -6.6511398113      -16.1856005679
 H         1.3950730934       -6.7591136781      -15.9496160139
 H        -0.4601040946      -12.2218587400      -11.6620644531
 H        -0.7808744419      -12.3731949596       -9.9993595305
 H         0.7366581306      -11.9095327508      -10.3602674191
 H        -2.6675692257      -10.8861129822      -11.4229632466
 H        -2.5324108353       -9.3069473477      -10.6337841148
 H        -2.5552604900      -10.7807122525       -9.6607267780
 H         5.6446245726      -11.2657333792       -7.3649621372
 H         4.5716355021      -11.2346232978       -8.6922075097
 H         4.1655080136      -12.1766780842       -7.2716175195
 H         4.6428907547      -10.9050496016       -5.2363099712
 H         2.9613216759      -11.3875730994       -5.3062208530
 H         3.3570893437       -9.7469593323       -4.8804090293
 H         6.8742304787       -4.8492592548       -9.0376003053
 H         5.9905800901       -3.3764436636       -9.4958902272
 H         6.1026728188       -4.7744239827      -10.6614833889
 H         4.4525089198       -5.3175201627       -6.7031234690
 H         3.9983726492       -3.8034134491       -7.2741843383
 H         5.6399327587       -4.1174184119       -7.2135843230
 H        -0.4970829455       -1.4249172497      -11.3116480193
 H         0.8148010733       -0.1911729069      -11.8371787793
 H        -0.8226295604        0.3451321727      -11.4406451593
 H         0.0610918715        2.0297455907       -9.9451193453
 H         1.4358374916        1.7193015039       -9.1846222719
 H        -0.0671097707        1.4700098095       -8.3334523072
 H        -5.5603580697        0.7460827156       -4.7204242021
 H        -5.0604794490        1.8351033304       -5.9400455334
 H        -3.9997468400        0.4994771143       -5.3381653367
 H        -6.4888126401       -1.2285760040       -5.3457798620
 H        -4.9035833624       -1.9476024011       -5.8908711670
 H        -6.3862722596       -2.1292033696       -6.8823931356
 H       -12.1834516769        2.9178562173       -3.6550377783
 H       -10.5510635974        2.7271812236       -3.2375492299
 H       -11.6591536679        1.3438750982       -3.1080694880
 H       -13.1546562707        1.7747679101       -5.7810300992
 H       -12.2920497950        0.2723241870       -6.0385117627
 H       -12.0850336772        1.6457747961       -7.1264759219
 H        -6.8099650695        8.6990493872       -4.8836393933
 H        -5.4109157610        8.6224023257       -5.8287753395
 H        -5.5800294706        7.4553852468       -4.5316632611
 H        -8.3697201123        7.1788517533       -7.8043584100
 H        -6.8990966570        8.1568237231       -7.9306460981
 H        -8.0619518381        8.6094599344       -6.8568799173
 H         0.1939856943        7.0107656132       -8.6361741720
 H         0.3181156620        5.8323560132       -9.9267158020
 H         0.0097621146        5.1834837130       -8.2810787085
 H        -3.0401966417        7.2955868104      -10.4610674824
 H        -1.5174692878        6.8035386645      -11.2304356136
 H        -1.5554029905        8.1916023053      -10.0634156096
 H        -6.3815789775        3.7027785947      -14.0938075694
 H        -5.3523956577        5.0557017929      -13.8350776866
 H        -7.0777368260        5.3082824837      -13.6427300504
 H        -8.0196011047        4.5855187560      -10.6211164347
 H        -8.3420865509        5.3189946310      -12.1593497648
 H        -7.1989452817        6.1373775815      -10.9188066633
 Na       -5.4729355594        3.1312062523       -8.6774598157
 Na        2.1548348280       -7.3248707574      -10.5721215980
