232

 C        -7.4606921023        2.0312078407      -12.5333274038
 C        -6.6344339966        2.7967656280      -11.6636246283
 O        -6.1128619751        2.1750563566      -10.7716738499
 C        -6.3429026944        4.3054879434      -11.9914851693
 C        -4.9537781954        4.7152008222      -11.3041472116
 O        -4.7156963877        5.8162430988      -10.8075655273
 C        -3.7794977195        3.7243408933      -11.5321656315
 C        -2.4898583441        4.4964076602      -11.1108229206
 C        -2.5814818919        4.8659051670       -9.6737761859
 O        -3.1673008984        4.2040996586       -8.8515649928
 C        -1.7817802764        6.1503997495       -9.2972094258
 C        -2.3769776981        6.6896908220       -7.8461919335
 O        -1.6806932318        6.9893646082       -6.9202455256
 C        -3.7958510451        6.8548268082       -7.8691094821
 C        -4.4977118170        5.9667869493       -6.7888475548
 C        -5.9428466752        5.8765928312       -7.0871538085
 O        -6.3990400727        5.1716016269       -8.0021019673
 C        -6.7918511757        6.8735781011       -6.2514846899
 C        -7.6329958807        5.8514369050       -5.4064330848
 O        -7.2018092116        5.2220657758       -4.4583003738
 C        -8.9986917958        5.4652689339       -6.0480076173
 C        -9.7112901571        4.4986807370       -5.1281601605
 C       -10.4952572269        3.4143925673       -5.9001309328
 O       -10.6134219144        3.6753594880       -7.0979150619
 C       -10.9832187284        2.0709342759       -5.3463724647
 C        -9.7525527238        1.1359204246       -5.5997435733
 O        -8.8309842350        0.9876142577       -4.8207445444
 C        -9.5858596148        0.5554935966       -7.0790242747
 C        -8.2778246461       -0.2480286143       -7.1400609734
 C        -6.9340963556        0.6418456283       -7.2386626040
 O        -7.0684825551        1.8265205494       -7.6669480080
 C        -5.6339007368       -0.0146724841       -6.7989511091
 C        -4.4808590011        0.1022728997       -7.8690949965
 O        -4.4411403024        0.9922359674       -8.7574220538
 C        -3.2322020295       -0.7815868602       -7.8284610177
 C        -2.1433702934       -0.4235391037       -8.9784247863
 C        -0.7159024932       -0.7658618454       -8.5215833168
 O        -0.3576231750       -1.2815793681       -7.4576992252
 C         0.3272596245       -0.2958851491       -9.4926690744
 C         1.6873852330       -0.9463308975       -9.2680228958
 O         2.6490664072       -0.2948161411       -8.8819136877
 C         1.9263552477       -2.3805487481       -9.7713961066
 C         3.3444878738       -2.9561942377       -9.9047513555
 C         3.4814297095       -4.4470239895       -9.8716003024
 O         2.6550971638       -5.1391851942      -10.4825815201
 C         4.6596232410       -5.0432330873       -8.9859899645
 C         4.8371615620       -6.5963486297       -9.2269554969
 O         4.2242980370       -7.2040978474      -10.0580500605
 C         5.8919853043       -7.3041200990       -8.3456573986
 C         5.5852737023       -8.7182928496       -8.0188590312
 C         4.2489192970       -8.8463929923       -7.2843480003
 O         3.6089072959       -7.8730601579       -6.9454181383
 C         3.7306691794      -10.3749168557       -7.1038245460
 C         2.3652302069      -10.2099453866       -7.8703043067
 O         2.4368667201      -10.3834038364       -9.0622155602
 C         1.0990766972       -9.7068574206       -7.0865660225
 C        -0.1409086284      -10.1448924197       -7.8832758736
 C        -0.1018567284       -9.5060755386       -9.3197451526
 O         0.4820825996       -8.4535100645       -9.4698202561
 C        -0.7018635060      -10.2531359187      -10.5972720784
 C        -0.0391281838       -9.4725099319      -11.8530465704
 O         1.1617391501       -9.3619496930      -11.8368453183
 C        -0.9564701566       -8.6443561805      -12.6796048333
 C        -0.1394490885       -8.0005287236      -13.7873251204
 C         0.3553841436       -6.5930323248      -13.4068017946
 O         0.6732396063       -6.2062622858      -12.2702470338
 C         0.3219836727       -5.4049737093      -14.5885229235
 C        -0.9497522713       -4.5646248866      -14.3406982343
 O        -0.9809454350       -3.9616898289      -13.3178421986
 C        -2.1131874821       -4.3586127300      -15.4794742732
 C        -3.3712672310       -3.6439594177      -14.9956268539
 C        -4.2305720440       -4.4504978496      -13.9954844313
 O        -3.9612662676       -5.6155805725      -13.8151328002
 C        -5.3222460496       -3.6613266206      -13.1929168061
 C        -5.9767794430       -2.4799775330      -14.1381493245
 O        -5.6670965211       -1.3224395204      -14.0575513899
 C        -7.2177456506       -3.0236278109      -14.9697326082
 C        -7.5179308054       -2.0905168689      -16.1573016042
 C        -8.5149910956       -0.9328626554      -15.9627165331
 O        -8.2915591075       -0.1399233045      -15.0634765043
 C        -9.8380990780       -0.6717016380      -16.8681482511
 C        -9.5527022079       -1.1703346160      -18.3216422844
 O        -8.5301611994       -0.7704426920      -18.8464256441
 C       -10.4617019055       -2.0367057532      -19.1170541372
 C       -11.1467644750       -1.4165475046      -16.2521269079
 C       -10.1370987209        0.8015611117      -17.0384749772
 C        -6.2663203158       -4.7199493579      -12.4903405612
 C        -4.5489842810       -3.0034612707      -12.0594097929
 C         1.5494197378       -4.4627884775      -14.3625808976
 C         0.3392964724       -6.0434457821      -16.0294176321
 C        -0.2783757960      -11.7189950163      -10.5637005109
 C        -2.2901663067      -10.2744430950      -10.6239965311
 C         4.7827883846      -11.4057330995       -7.6249665401
 C         3.4902158244      -10.5110444494       -5.5059315224
 C         5.9576608846       -4.4667387786       -9.6425093273
 C         4.5285385551       -4.6298539969       -7.5045890660
 C        -0.1652443767       -0.3443248853      -10.9439930635
 C         0.5298789512        1.2714793319       -9.1758006690
 C        -4.9867390991        0.8913403306       -5.6759171077
 C        -5.8699606962       -1.4648518381       -6.3612238334
 C       -11.3179934749        2.1167620220       -3.8008679091
 C       -12.2318486566        1.5765608842       -6.1236657643
 C        -6.1114126381        7.7756555198       -5.2489988891
 C        -7.5674367915        7.8028854393       -7.2347476252
 C        -0.2768184014        5.9339256445       -8.9097679389
 C        -1.8413071337        7.2385299376      -10.4092073257
 C        -6.1518207137        4.4811913183      -13.5763342621
 C        -7.4604389073        5.1904915846      -11.3680357387
 H        -8.1381142635        2.7524111719      -12.9512658406
 H        -7.9697281574        1.1310473205      -12.2041543339
 H        -6.8472926013        1.6582338654      -13.4103547996
 H        -3.5768220245        3.3668755288      -12.5113984492
 H        -3.8237798244        2.7564634311      -10.9657888945
 H        -2.2232351454        5.2803265958      -11.7177139067
 H        -1.7485639252        3.7403098295      -11.3092708954
 H        -4.2310338455        6.5372397202       -8.8568234346
 H        -4.0627518925        7.8956158256       -7.6605987315
 H        -4.2895889932        6.3415162521       -5.8308460152
 H        -3.9996849523        4.9943350251       -6.8090856870
 H        -8.7296188258        4.9028930947       -6.9881648054
 H        -9.6959218342        6.2531033782       -6.1999888613
 H       -10.3765776923        5.1274028636       -4.4570864992
 H        -9.0299258395        3.8344139475       -4.5940525659
 H        -9.6390818138        1.4538312459       -7.7763766939
 H       -10.4523486050       -0.0942011264       -7.1041040289
 H        -8.2418605829       -0.8140772934       -8.0463078590
 H        -8.0712875026       -1.0561188267       -6.4320492975
 H        -3.3005354597       -1.8547662919       -7.8502543434
 H        -2.8327034802       -0.4769844899       -6.8318620279
 H        -2.2734687577        0.6333067635       -9.1914480290
 H        -2.3913618179       -0.9581588681       -9.9142474187
 H         1.5381767696       -2.6145925953      -10.6669343956
 H         1.4456130976       -3.1049788713       -9.0737511915
 H         4.0217131966       -2.5517849428       -9.0920532709
 H         3.8016106306       -2.4037648483      -10.7654099692
 H         5.9877818449       -6.7050603725       -7.4232201866
 H         6.7536412064       -7.0780113265       -9.0077161340
 H         6.4698072639       -8.9611564235       -7.4584910498
 H         5.7229996499       -9.3336001186       -8.8967814458
 H         1.0990802660       -8.6303272155       -6.9671280482
 H         1.0141306303      -10.2252867726       -6.1763348103
 H        -1.0498666794       -9.9646750988       -7.4214369390
 H        -0.0681451418      -11.3279699459       -7.8760479156
 H        -1.5961576804       -7.9574774306      -12.1496470474
 H        -1.5158284102       -9.4142639070      -13.1767542081
 H        -0.6813690488       -7.9068676406      -14.8301819575
 H         0.7001342754       -8.6428362835      -13.9845574420
 H        -2.2150919171       -5.4407255394      -15.8178185762
 H        -1.5884340503       -3.8427852899      -16.3287588879
 H        -4.0860879889       -3.2422576441      -15.8435675457
 H        -3.0914373112       -2.7563479238      -14.4711048597
 H        -8.1182885530       -3.0513704584      -14.2978973768
 H        -7.1015102926       -4.0364187308      -15.3189041833
 H        -7.5904669698       -2.5453336051      -17.1446604977
 H        -6.5001486475       -1.4994466279      -16.3271319579
 H       -11.2778798541       -2.5016705046      -18.5336385540
 H        -9.9196368696       -2.8338918232      -19.5812348291
 H       -10.8932944247       -1.4158336776      -19.9209772584
 H       -10.9832508712       -2.4709155343      -16.0889673430
 H       -11.9064102202       -1.2014284703      -17.0294856748
 H       -11.3101697586       -0.9188233071      -15.3214105129
 H        -9.1764023095        1.2005360902      -17.4112245763
 H       -10.2463853738        1.2787186918      -16.0617447892
 H       -10.9423483868        0.9427586325      -17.6705836202
 H        -6.8849628044       -4.1919446368      -11.6526450741
 H        -5.6064121616       -5.5695646473      -12.1716430331
 H        -7.0327702952       -5.1433569274      -13.1637558085
 H        -3.6212285055       -2.5200622206      -12.4072855457
 H        -4.1299427485       -3.7025144321      -11.4105375958
 H        -5.1145469296       -2.2549718454      -11.4576550556
 H         1.5448345295       -3.5513504961      -14.9040665664
 H         2.5100703480       -4.9153940264      -14.5104844479
 H         1.6922640299       -4.0972987972      -13.3553579236
 H         0.1592080630       -5.2916554767      -16.8351409653
 H        -0.4767575054       -6.8080086760      -16.1961058938
 H         1.2550768612       -6.5718981749      -16.2224614412
 H        -0.5304321963      -12.3553396010      -11.4180436385
 H        -0.5467944602      -12.1982469421       -9.6827447573
 H         0.7705831489      -11.7306801004      -10.3590631843
 H        -2.6775728292      -10.9236023969      -11.3712629462
 H        -2.5585822750       -9.2721470552      -10.7738699013
 H        -2.5848308718      -10.6529283023       -9.6714107641
 H         5.8120532816      -11.0817930868       -7.3360428466
 H         4.8012209408      -11.5180584062       -8.7156824737
 H         4.5446665311      -12.2769483847       -6.9916439337
 H         4.4402497456      -10.6717446231       -4.9994284715
 H         2.8609212691      -11.2690904307       -5.1866331588
 H         3.0731464651       -9.5665045635       -5.1707521088
 H         6.8390435478       -4.5422496602       -8.9978015920
 H         5.7471757250       -3.3885213666       -9.8469940534
 H         6.0923378017       -4.9681224829      -10.6370341929
 H         4.3464622622       -5.3269485851       -6.7645884516
 H         3.5990504604       -4.0662317800       -7.4402143328
 H         5.3387727222       -4.0043144067       -7.0809989767
 H        -0.2128172307       -1.3998691947      -11.2230304830
 H         0.5945644985        0.1446390556      -11.6077387252
 H        -1.1650130015        0.1813482409      -11.0949131884
 H         0.4206764889        1.9942917647      -10.0387400070
 H         1.4684306524        1.5743069634       -8.9132727963
 H        -0.1583327753        1.5687339936       -8.3815914223
 H        -5.6780189090        0.9279801628       -4.7966725924
 H        -4.8851364882        1.9363367905       -5.9319989643
 H        -4.0829513515        0.4770204888       -5.2589235846
 H        -6.2905795824       -1.4203592358       -5.3296282414
 H        -4.9068192698       -2.0051148571       -6.4407421422
 H        -6.5431918584       -2.0461944233       -6.9871826220
 H       -12.1742909386        2.7942331959       -3.6071170910
 H       -10.5666699255        2.5407238826       -3.1704576233
 H       -11.6283838073        1.1747800521       -3.3347529350
 H       -13.1823593478        1.9437564705       -5.7506684918
 H       -12.2984013959        0.4779365284       -6.0511790410
 H       -12.2377998670        1.8510883969       -7.2123984376
 H        -6.9314786371        8.3249958224       -4.8390577340
 H        -5.4084303848        8.6041894047       -5.5556195129
 H        -5.6493837558        7.1831577410       -4.4042224200
 H        -8.2339615176        7.1645412979       -7.7409761739
 H        -6.8880787946        8.3479743525       -7.9385753397
 H        -8.0890927616        8.5659307236       -6.6975035233
 H         0.0420748497        6.7966951369       -8.2770639680
 H         0.4450917135        5.8567744188       -9.6512166696
 H        -0.2869305874        5.0371689476       -8.3050270322
 H        -2.7500293355        7.4492386787      -10.9275295121
 H        -0.9965865279        7.0813078744      -11.1866040630
 H        -1.6386196347        8.1566101573       -9.8580365692
 H        -6.0714315444        3.4934865564      -14.0317250662
 H        -5.1819419567        4.8648187079      -13.8035984515
 H        -6.9219855490        5.0711013268      -14.0489807676
 H        -7.7895393658        4.6613585349      -10.4202341058
 H        -8.4694241301        5.4357058979      -11.8908499020
 H        -6.9289628226        6.0678838512      -11.0125790833
 Na       -5.3750774728        3.0442271501       -8.8379217964
 Na        2.1220746583       -7.3798966309      -10.5527073001
