232

 C        -7.5370552520        1.8539602031      -12.7210537385
 C        -6.6735450998        2.7283663374      -11.7686476947
 O        -6.1677583102        2.1914111191      -10.7810952099
 C        -6.2679941555        4.2412186615      -12.0062521364
 C        -4.9058466426        4.6875203024      -11.3994351912
 O        -4.9467605280        5.7947150485      -10.9174316304
 C        -3.7549116599        3.7766173309      -11.5677459851
 C        -2.3992630112        4.4945591979      -11.1961496415
 C        -2.4876945037        5.0024093779       -9.7603939444
 O        -3.1388554722        4.4541564918       -8.8952607749
 C        -1.6030589429        6.2381404056       -9.1929231850
 C        -2.3007377892        6.7355252569       -7.9351572207
 O        -1.6363576000        6.9010621100       -6.9638102075
 C        -3.8574052309        6.9315367807       -7.8773502460
 C        -4.4923948470        5.9174411240       -6.8317338759
 C        -5.9591045492        5.8908158557       -7.1010205412
 O        -6.4592644735        5.1141181240       -7.9196247014
 C        -6.8861260102        6.8114242802       -6.2110449417
 C        -7.6963718497        5.7711509403       -5.4813399759
 O        -7.2709417499        5.4183215331       -4.4537843130
 C        -9.0147967281        5.3956850326       -6.0355832783
 C        -9.7158531089        4.4434352571       -5.1367068882
 C       -10.4913770594        3.4685631074       -6.0475085113
 O       -10.5408783207        3.5700375728       -7.2569304456
 C       -10.9642887054        2.1515001461       -5.4127876214
 C        -9.6919214912        1.2238436854       -5.5587916532
 O        -8.9362065043        1.0781787017       -4.6389724045
 C        -9.5037534132        0.6082263583       -6.9741641649
 C        -8.2844844213       -0.2206779961       -7.0521383628
 C        -7.0073510277        0.7185604598       -7.2424739808
 O        -7.1451716847        1.8119032683       -7.6404895322
 C        -5.5738480049        0.0628279681       -6.8411050234
 C        -4.3690337769        0.2581865027       -7.8664721220
 O        -4.3819557428        1.1275265035       -8.7362133441
 C        -3.2009742194       -0.6882729773       -7.6463244539
 C        -2.1290432364       -0.4226800414       -8.8075525145
 C        -0.6981691601       -0.7728859196       -8.4186002090
 O        -0.5122991331       -1.4218485415       -7.4011958809
 C         0.3812442836       -0.2375679331       -9.4418071341
 C         1.7940301429       -0.9390187244       -9.3545708499
 O         2.7358073325       -0.3663644541       -8.8761127657
 C         1.8164314361       -2.4511892139       -9.6325021586
 C         3.2752175995       -2.9294315357       -9.8330540394
 C         3.4830518594       -4.4393639259       -9.8832565402
 O         2.7816736157       -5.0701312307      -10.6713822677
 C         4.6272518823       -5.0232837803       -9.0902653007
 C         4.8719434432       -6.6645820413       -9.2990462076
 O         4.4235441867       -7.2893503607      -10.2326178376
 C         5.9585285039       -7.2812226495       -8.3309309081
 C         5.6055073695       -8.7289041966       -7.9838294645
 C         4.3274055670       -8.9443930668       -7.2662690596
 O         3.5679164745       -7.9921836916       -7.0235239568
 C         3.7951902724      -10.2925365817       -6.9921775755
 C         2.4143452096      -10.1979546959       -7.8104890682
 O         2.2945349239      -10.4537447472       -8.9871596841
 C         1.1992876193       -9.6068946300       -7.1563646808
 C        -0.1027435642      -10.0466062113       -7.8572261363
 C        -0.0711999167       -9.4851482394       -9.2697563878
 O         0.3908195786       -8.3535183053       -9.4313333259
 C        -0.6391512723      -10.2057406638      -10.3902102893
 C        -0.0149958657       -9.4436015408      -11.6692505227
 O         1.1905215233       -9.5581519423      -11.8048285032
 C        -0.8581916747       -8.5057679415      -12.5173183676
 C        -0.0399105160       -7.9717283045      -13.7370940160
 C         0.2996200356       -6.5084794474      -13.5026918018
 O         0.6085476505       -6.1421606262      -12.3806300058
 C         0.2540370045       -5.4702135694      -14.6595897610
 C        -1.1122959184       -4.6580879392      -14.3561369000
 O        -1.1633664995       -3.9831739520      -13.3353261579
 C        -2.1637844132       -4.4974351421      -15.4753006042
 C        -3.3399070224       -3.6455242326      -14.9899299360
 C        -4.2398301014       -4.4668991956      -14.0601748438
 O        -4.0164514593       -5.6299880182      -13.7704379364
 C        -5.3029431267       -3.6865832862      -13.2619764896
 C        -5.9811682995       -2.5822001437      -14.0269167725
 O        -5.5727840059       -1.4060194857      -14.1645452475
 C        -7.2170048823       -2.9259623873      -14.8772996080
 C        -7.5728077673       -2.0594434752      -16.1492727473
 C        -8.6332178920       -0.9977384466      -15.8576168871
 O        -8.4892400596       -0.1167596617      -15.0282939661
 C        -9.8233492476       -0.7375384250      -16.8619286554
 C        -9.4737283814       -1.1962842820      -18.3595845905
 O        -8.4372954050       -0.7803209789      -18.8193650221
 C       -10.4327934377       -2.1429822709      -19.1354097008
 C       -11.1162126676       -1.4186573226      -16.2818859608
 C       -10.0895067087        0.7954243293      -16.7392700928
 C        -6.3061103620       -4.6611281831      -12.7268286375
 C        -4.4721932311       -3.0980870457      -12.0880376774
 C         1.3295920555       -4.4448419627      -14.4780005177
 C         0.2533947658       -5.9660888394      -16.0919197867
 C        -0.1446762937      -11.7362974694      -10.4879312539
 C        -2.2448897492      -10.1249739794      -10.5748608503
 C         4.6735432305      -11.4324531775       -7.4750360768
 C         3.3873440104      -10.4494679762       -5.4956002669
 C         5.9961384675       -4.4171926375       -9.6878880039
 C         4.2812419412       -4.7195204586       -7.5992806629
 C        -0.1554734267       -0.3686588725      -10.8980873179
 C         0.5447875238        1.3036919364       -9.0538315074
 C        -5.0649643606        0.9441243935       -5.6827738723
 C        -5.6497378353       -1.4573801191       -6.4506575377
 C       -11.1835871463        2.0202557482       -3.9125193227
 C       -12.2256258384        1.7787321929       -6.1178945031
 C        -6.0238185676        7.5770860560       -5.1529410560
 C        -7.6494752034        7.8257908809       -7.2251466598
 C        -0.1963599097        5.6486549397       -8.9339417860
 C        -1.7276696524        7.3452174348      -10.3133292479
 C        -6.0765503484        4.4547811301      -13.4942044230
 C        -7.3392953653        5.1674520752      -11.3408173310
 H        -8.4704306830        2.4859982514      -12.9439293084
 H        -7.8401166100        0.8860275286      -12.3276130767
 H        -7.1256447163        1.5757593534      -13.7138671335
 H        -3.6154876331        3.2307044979      -12.5151349047
 H        -3.9233367547        2.9470243007      -10.8991086592
 H        -2.2472366250        5.4019341117      -11.8080254991
 H        -1.5866041959        3.8018026820      -11.5049237293
 H        -4.3518545995        6.7206365819       -8.7573012041
 H        -4.1265061687        7.9235175629       -7.5200130030
 H        -4.1552689837        6.1352964291       -5.7604595642
 H        -4.0519053041        4.8873636494       -7.0104703308
 H        -8.7192441828        4.8586772992       -6.9252545519
 H        -9.7479690362        6.2613067190       -6.2889063748
 H       -10.4616865615        4.9751739232       -4.4385693479
 H        -9.0811751341        3.7353223055       -4.6171967173
 H        -9.5904423801        1.4584163137       -7.7123832062
 H       -10.4056279254       -0.0675957472       -6.9066397398
 H        -8.3478000157       -0.9074226224       -7.8941997719
 H        -8.0169895768       -0.9398981484       -6.2770977187
 H        -3.4682648786       -1.6681223742       -7.6899113289
 H        -2.8564673451       -0.5428014465       -6.6192820982
 H        -2.2254347904        0.6113489067       -8.9498648676
 H        -2.4499112791       -0.8876811235       -9.7060935676
 H         1.3550049218       -2.8231922257      -10.5321780668
 H         1.4183342749       -3.0219242681       -8.8297528489
 H         3.9230435120       -2.4700861012       -9.0919065372
 H         3.6436437309       -2.4271859669      -10.7638534052
 H         5.8508182420       -6.6093619275       -7.4356137468
 H         6.8683628129       -6.9870555594       -8.8292913142
 H         6.5286674724       -9.2010893144       -7.6440680817
 H         5.4915076177       -9.1983518414       -8.9979753400
 H         1.2408592524       -8.5135608082       -7.2465448812
 H         0.9785490138       -9.9242382166       -6.1546587941
 H        -1.0122186372       -9.8102093223       -7.2979648541
 H        -0.0271474342      -11.1687758051       -7.7989463702
 H        -1.1511216204       -7.6723169060      -11.9114153306
 H        -1.7072664415       -9.0115338176      -12.9339296305
 H        -0.6546869262       -8.0192461714      -14.7344934017
 H         0.8738345476       -8.6691721307      -13.9427139968
 H        -2.5154044622       -5.5289315177      -15.7786346729
 H        -1.5636730862       -4.1478949294      -16.3404345139
 H        -4.0190059430       -3.4875740576      -15.8179496693
 H        -3.2028417473       -2.6272662430      -14.5856690566
 H        -8.0699587784       -2.9423321302      -14.2841064882
 H        -7.1493521473       -3.9145288413      -15.2529370898
 H        -8.0103111277       -2.6781424417      -16.9099782645
 H        -6.6730242943       -1.7123805356      -16.7069562377
 H       -11.1775384010       -2.5046100839      -18.4748747387
 H        -9.8944453623       -3.0614489507      -19.4658521629
 H       -10.9265581800       -1.6738982125      -19.9989247304
 H       -10.9971008938       -2.4645833024      -16.2278503878
 H       -11.8972734732       -1.1470080320      -16.9633628868
 H       -11.1733901765       -0.9885853135      -15.2921810181
 H        -9.1528967338        1.2584160633      -16.9178190670
 H       -10.1967119741        0.9802494558      -15.6892579888
 H       -10.9727981659        1.1055583000      -17.2718649019
 H        -6.7308779329       -4.2734536023      -11.8528935620
 H        -5.7483376536       -5.6392500174      -12.6233185098
 H        -7.1808631977       -4.8629346423      -13.3447672832
 H        -3.6105715596       -2.5111996092      -12.4164862513
 H        -3.9931579262       -3.8481289345      -11.4502935178
 H        -5.0729478809       -2.4968634360      -11.4453992228
 H         1.0789052911       -3.4806457463      -14.8162191181
 H         2.3694986767       -4.6540558443      -14.7073963843
 H         1.4572391139       -4.2378739534      -13.4008065758
 H         0.2492035742       -5.0367134646      -16.6790309665
 H        -0.6269948563       -6.5705351639      -16.4757203989
 H         1.1440811363       -6.5074390890      -16.3816364560
 H        -0.5098147990      -12.2495100505      -11.3957963725
 H        -0.2646746702      -12.3443638150       -9.5694946939
 H         0.9207389736      -11.7805453968      -10.4668392846
 H        -2.5109471672      -10.7334177786      -11.4104528024
 H        -2.5218258683       -9.0696504938      -10.7057208895
 H        -2.6681122971      -10.6322990370       -9.7210431950
 H         5.7537122698      -11.2736504118       -7.2810196430
 H         4.5662396738      -11.3148988711       -8.6051409014
 H         4.3534048940      -12.4394565320       -6.9882943514
 H         4.2521709962      -10.5346176931       -4.8635202282
 H         2.8888746102      -11.4044879153       -5.4068775592
 H         2.7512569400       -9.6606333152       -5.1748102451
 H         6.7321916543       -4.5713928724       -8.8900844310
 H         5.8592624667       -3.3454222444       -9.9181827363
 H         6.2961169526       -4.9059903249      -10.6605428902
 H         4.1663672305       -5.5573608793       -6.9778793512
 H         3.2746996410       -4.2779607003       -7.4225372166
 H         5.0470647734       -4.1477264556       -7.0565643771
 H        -0.1141972116       -1.4139643083      -11.0551900238
 H         0.5408827079        0.0181885101      -11.6426008574
 H        -1.1823982826        0.0791589384      -11.0876466944
 H         0.8446963613        1.9933855508       -9.8832469099
 H         1.5586796196        1.4942839154       -8.5017138179
 H        -0.2212246910        1.7074439921       -8.4424125271
 H        -5.8944631553        0.9908226237       -4.9490255570
 H        -4.8195512520        1.9875653933       -5.8398906414
 H        -4.2881755308        0.4403264739       -5.1162017491
 H        -6.3178351505       -1.6207554691       -5.5970062535
 H        -4.6968898589       -1.9250536541       -6.3875527447
 H        -6.0912657924       -2.0100888359       -7.3354633152
 H       -11.9933125016        2.6652733343       -3.5373310904
 H       -10.3624109672        2.2257670010       -3.2627898796
 H       -11.5126731463        1.0618680666       -3.7118982573
 H       -13.1175849999        2.3782252491       -5.7987291067
 H       -12.4900913021        0.7463831635       -5.9898575967
 H       -12.1573211532        2.0237295461       -7.1961676084
 H        -6.6688600034        8.2790122798       -4.5795478853
 H        -5.2724522089        8.2242335268       -5.6238678478
 H        -5.5267632157        6.8913195466       -4.4251366289
 H        -8.0911741960        7.1700506336       -8.0194424327
 H        -6.9638368908        8.6014089510       -7.6505946103
 H        -8.4753238188        8.3683315163       -6.6482083010
 H         0.4545988838        6.2744673645       -8.4475621192
 H         0.2275483912        5.4367983429       -9.9179089216
 H        -0.2649404526        4.7419881659       -8.4142244770
 H        -2.6820381111        7.3722502854      -10.8307156534
 H        -0.9244287088        7.2163722952      -11.0271834489
 H        -1.7275761083        8.3369821320       -9.8824948696
 H        -5.6915930504        3.5222525320      -13.8643900267
 H        -5.2172966471        5.0854596234      -13.6890662815
 H        -6.9420793667        4.7594162716      -14.0594418686
 H        -7.6049214715        4.9742497781      -10.2785079415
 H        -8.2925411020        4.9801307213      -11.8871412801
 H        -7.0203958135        6.1712619422      -11.4806157404
 Na       -5.2824865714        3.1436643643       -8.8771459382
 Na        1.9505351759       -7.4755493199      -10.6747941467
