232

 C        -7.5515645500        1.9081949491      -12.8024758434
 C        -6.6341138537        2.6626231252      -11.8069862356
 O        -6.3160686950        2.0962195199      -10.7395470739
 C        -6.2985805423        4.1230156864      -12.1776933082
 C        -4.9409374338        4.6265987085      -11.3751552546
 O        -4.8462315058        5.7544383621      -10.9472624974
 C        -3.6597149766        3.8041489559      -11.5737995489
 C        -2.3315356148        4.5794027600      -11.2158293939
 C        -2.4590862269        5.0847487750       -9.8508178197
 O        -3.1592696444        4.4462990021       -9.0184283502
 C        -1.5000086359        6.1893253248       -9.2935707684
 C        -2.2203449355        6.7024537200       -7.8929591532
 O        -1.5641088182        6.8878375144       -6.8643742322
 C        -3.7792205428        6.9718828575       -7.8955475302
 C        -4.3892601310        5.8684184072       -6.9750542423
 C        -5.8851799932        5.8874523638       -7.0867750005
 O        -6.4994841543        5.0770879977       -7.7991872080
 C        -6.7802712899        6.8550303316       -6.2503759055
 C        -7.7988270458        5.9104739683       -5.3871580153
 O        -7.3806212684        5.4398068376       -4.3246611532
 C        -9.0681538313        5.4614034615       -6.0759928734
 C        -9.7821806453        4.4254578406       -5.2112532233
 C       -10.4645818307        3.3809787680       -6.1120534567
 O       -10.5031588079        3.5147677703       -7.3032817562
 C       -11.0644230976        2.0640142518       -5.3691887474
 C        -9.7485888463        1.2151048336       -5.5618035198
 O        -8.9440370624        1.1083837380       -4.6579872038
 C        -9.4636266352        0.5538764301       -6.9802394245
 C        -8.1843965387       -0.1702620534       -7.0231221003
 C        -6.9608139341        0.6593273019       -7.2891642369
 O        -7.0211361973        1.8052137158       -7.6662205812
 C        -5.5672563566        0.1179656299       -6.8197238908
 C        -4.3382340379        0.3022525581       -7.8863459090
 O        -4.2768958391        1.1984587780       -8.6580697242
 C        -3.1418470076       -0.5513825740       -7.6170125310
 C        -2.1366964375       -0.3365737138       -8.7225959032
 C        -0.7556406424       -0.7996282998       -8.3279001707
 O        -0.4605302485       -1.5450943029       -7.4498498831
 C         0.4243760699       -0.2199073122       -9.3401265647
 C         1.7851936865       -0.9997484746       -9.1920267452
 O         2.8401146333       -0.4508392782       -8.9456307385
 C         1.7109608189       -2.4819406209       -9.4705582899
 C         3.2664921304       -2.8801213780       -9.8108823159
 C         3.4767297724       -4.4908737956      -10.1134333341
 O         2.7604983197       -5.1058497499      -10.8368737491
 C         4.6225646901       -5.1193141167       -9.2202308370
 C         4.9425554641       -6.5791510343       -9.3539902677
 O         4.5555441477       -7.3153453468      -10.2411567089
 C         5.9746369539       -7.2237397792       -8.3629002723
 C         5.6272863177       -8.7184580014       -8.0852923436
 C         4.2990714004       -8.8630442516       -7.3143760744
 O         3.6716498981       -7.8507491907       -7.0409290327
 C         3.6434441163      -10.3304232688       -6.9317316644
 C         2.3858016076      -10.2626059540       -7.7544092044
 O         2.3434954209      -10.6380573171       -8.9295233469
 C         1.2013411616       -9.5554074112       -7.0157869664
 C        -0.1387838495       -9.9433646836       -7.7297849011
 C        -0.0888110197       -9.3661191851       -9.1820628334
 O         0.2136013831       -8.1760576950       -9.2071857238
 C        -0.6050303765      -10.2257263340      -10.5242169147
 C         0.0611094912       -9.5248960919      -11.6289442155
 O         1.2685938394       -9.6896579318      -11.8718664948
 C        -0.7571408980       -8.5031652212      -12.4320444108
 C        -0.0416047034       -7.9588320998      -13.7173061324
 C         0.2896346200       -6.4322947504      -13.6054882375
 O         0.6395473249       -6.1118622213      -12.5166336032
 C         0.1302086107       -5.3588965851      -14.6953281659
 C        -1.2155669459       -4.5717081353      -14.3817712400
 O        -1.4167000081       -4.0364406461      -13.3061423328
 C        -2.2138969672       -4.6434925949      -15.5298936071
 C        -3.3290242683       -3.7531931731      -15.1270913361
 C        -4.2259334577       -4.4797089478      -14.0589789910
 O        -4.0350914432       -5.6476675737      -13.8518169447
 C        -5.3604065491       -3.6994884092      -13.2194359457
 C        -5.9815525202       -2.5227039826      -14.1664850242
 O        -5.3443349854       -1.5046254759      -14.1801863820
 C        -7.3549450919       -2.9097467910      -14.8678016556
 C        -7.7243087926       -2.0937682057      -16.1264001012
 C        -8.6686246677       -0.8928967815      -15.8334221270
 O        -8.5233354312       -0.2837811628      -14.8089431904
 C        -9.8398924474       -0.6933395000      -16.8127398394
 C        -9.4298127285       -1.1889741749      -18.2618615399
 O        -8.4065170676       -0.8363720454      -18.8114429027
 C       -10.2974930102       -2.1486755298      -19.0770304308
 C       -11.0948261453       -1.5277674694      -16.2684873651
 C       -10.1480366780        0.8439746925      -16.7274607020
 C        -6.4500664527       -4.7211738756      -12.7477037479
 C        -4.4643166636       -3.0619243512      -12.0402367094
 C         1.2314993997       -4.3729751885      -14.5427898518
 C         0.1986480886       -6.0110666534      -16.1328794881
 C        -0.1155771104      -11.6579434820      -10.4859213850
 C        -2.1446099146      -10.0992682671      -10.4064847009
 C         4.4824926008      -11.6046746903       -7.3902749990
 C         3.4522258142      -10.4795805614       -5.3784333363
 C         5.9580415253       -4.3994054096       -9.5295254175
 C         4.1794583523       -4.8500319346       -7.7364416041
 C        -0.0804514110       -0.3368474474      -10.8500177766
 C         0.5712735241        1.2718272147       -9.0091149031
 C        -5.2304968268        0.9570572883       -5.5351577005
 C        -5.5883066501       -1.3206164035       -6.4466434598
 C       -11.2458554235        2.1937820258       -3.8201546234
 C       -12.2934008891        1.7197251186       -6.1925319783
 C        -5.9748406362        7.6298871095       -5.2189169306
 C        -7.6681956196        7.7783069273       -7.1343066258
 C        -0.2023130641        5.5147298252       -9.0750219269
 C        -1.4950264239        7.4841681880      -10.2327659078
 C        -6.1426706972        4.4818028386      -13.6538963896
 C        -7.4532119072        5.0375733620      -11.5041793881
 H        -8.6031828117        2.2609099616      -12.9684215173
 H        -7.5606980515        0.8700205493      -12.4000472752
 H        -7.1551988701        1.7182465638      -13.7841867998
 H        -3.5721263939        3.5190178245      -12.6544434170
 H        -3.6789655949        2.8288394186      -11.1371375617
 H        -2.0898415465        5.4407799390      -11.9659551565
 H        -1.4683025369        3.8600005443      -11.3059187907
 H        -4.2403618904        6.9067125705       -8.8612116703
 H        -4.0310029797        7.8806952957       -7.3774251438
 H        -3.9197474854        6.1052288409       -5.9587838467
 H        -3.9889433021        4.8516966838       -7.1851165739
 H        -8.7225405631        5.1092214298       -7.0500194259
 H        -9.7569640934        6.3704423656       -6.1533993148
 H       -10.6425040202        4.8161225528       -4.7215055993
 H        -9.1546683678        3.8550765780       -4.4790763166
 H        -9.3943754581        1.4495234826       -7.5539262374
 H       -10.3331786011       -0.0991962406       -7.1890492758
 H        -8.2315940620       -1.0752951579       -7.6923889616
 H        -7.8515453616       -0.6459110274       -6.1419568977
 H        -3.4317263036       -1.6533115899       -7.7018836113
 H        -2.7873275021       -0.4847205673       -6.6283930893
 H        -2.2113248907        0.7097097918       -8.9692823891
 H        -2.4446780680       -0.9025548820       -9.5807447974
 H         1.0680656749       -2.8393797801      -10.3863266846
 H         1.4667281119       -3.1020491187       -8.6469567950
 H         3.8022884332       -2.5635477744       -8.9370592226
 H         3.6530265290       -2.2568119301      -10.6180530161
 H         5.9482144549       -6.6384148083       -7.4533958913
 H         6.9126635099       -6.9660793972       -8.8446878633
 H         6.5132889987       -9.1026849962       -7.5233834531
 H         5.7454556584       -9.2460302332       -9.0490956160
 H         1.2463001277       -8.4775330682       -7.2733682581
 H         0.9701096858       -9.7006855512       -5.8921147761
 H        -1.0919666501       -9.4809386347       -7.2374026809
 H        -0.2616627439      -10.9423216852       -7.6333080770
 H        -0.7113195682       -7.6555088688      -11.7295158613
 H        -1.7988688447       -8.7379704743      -12.7032351649
 H        -0.5690949758       -8.2132249927      -14.5663595112
 H         0.9390450637       -8.5943824297      -13.8391594180
 H        -2.4755674113       -5.6263855085      -15.8264638593
 H        -1.6125128439       -4.2766167281      -16.3551977329
 H        -3.8799588097       -3.4612645407      -15.9499392597
 H        -3.0511406112       -2.7651876031      -14.6385342819
 H        -8.1253602163       -2.9733894646      -14.1505054689
 H        -7.2777509337       -3.9199937295      -15.2865987493
 H        -8.1404173410       -2.6565976280      -16.9890652300
 H        -6.8263188278       -1.8707610538      -16.5139298681
 H       -11.1615618033       -2.6051330585      -18.5957493335
 H        -9.6612754353       -2.9846675662      -19.4083819663
 H       -10.6600413120       -1.6102760627      -19.9431700597
 H       -10.8607481377       -2.5599559143      -16.4862013420
 H       -11.9313512207       -1.2515255539      -16.8198951409
 H       -11.0730284126       -1.3463891908      -15.2065164365
 H        -9.2146412546        1.3251422350      -16.8618559780
 H       -10.3709301295        1.0532052449      -15.7076108653
 H       -11.0607072759        1.0670439477      -17.3608979541
 H        -7.0306317303       -4.3420172735      -11.9732500193
 H        -5.9811476842       -5.6438828970      -12.5975203233
 H        -7.2208314344       -4.9318971362      -13.4618047253
 H        -3.7445388217       -2.3440500176      -12.3824946254
 H        -3.8253260033       -3.8328825911      -11.5123820480
 H        -5.0524819611       -2.6621220251      -11.2455472456
 H         0.9810767888       -3.3785845498      -14.9823484038
 H         2.2180124214       -4.7125151968      -14.8697428015
 H         1.5172239520       -4.0785464541      -13.5435309586
 H         0.3671795052       -5.1978941390      -16.8284165439
 H        -0.6175420549       -6.5674624724      -16.4980249987
 H         1.1097712908       -6.6676493725      -16.2248105378
 H        -0.4768104287      -12.2506425030      -11.3230967289
 H        -0.3717972282      -12.1200607001       -9.4897988006
 H         0.9849659989      -11.8017464193      -10.4164571207
 H        -2.7878445252      -10.4476080067      -11.2539568861
 H        -2.3075092362       -9.0330085814      -10.1416650343
 H        -2.3145813330      -10.7858537608       -9.5601150713
 H         5.4832391817      -11.5536931483       -6.9077744445
 H         4.6810691117      -11.3520553844       -8.4488834182
 H         4.0217027347      -12.5732147769       -7.1682423460
 H         4.4312050712      -10.6973147216       -4.9856845787
 H         2.8609779801      -11.4181980904       -5.1521848217
 H         2.9978895625       -9.6178845880       -4.9036843056
 H         6.6182660513       -4.7312750899       -8.7034373917
 H         5.7471993422       -3.3159182904       -9.5222744689
 H         6.3378125603       -4.5868526442      -10.5221728939
 H         4.0427122353       -5.7865200329       -7.0363163525
 H         3.2288787895       -4.3826261429       -7.5575793978
 H         4.9596276475       -4.3715966401       -7.2162302916
 H        -0.3471745788       -1.3935183063      -11.0385082435
 H         0.6955834371       -0.1919295669      -11.5748991794
 H        -0.8332543507        0.3431203353      -11.0061267498
 H         1.2003092219        1.7961614080       -9.6696160930
 H         1.3269082359        1.3963485262       -8.1516860557
 H        -0.3490536906        1.8229826284       -8.6979049087
 H        -6.0286869757        1.0291910332       -4.8249892425
 H        -4.9971595854        2.0086590676       -5.7619122976
 H        -4.3782854742        0.5325544992       -4.9798017821
 H        -6.5162405412       -1.6153318115       -6.0083366299
 H        -4.7325240737       -1.6074672441       -5.8470747405
 H        -5.4376910533       -1.9593316439       -7.3347023090
 H       -11.9667143083        2.8866052009       -3.5094876380
 H       -10.3468203918        2.4163936076       -3.2458738174
 H       -11.5900864111        1.2471662701       -3.4334674357
 H       -13.0222514296        2.5389094405       -6.0855322019
 H       -12.8318020797        0.7947279775       -5.9658954780
 H       -12.0777628004        1.8068341529       -7.2339120670
 H        -6.6030959682        8.3094185187       -4.5737786075
 H        -5.1273241540        8.1776770261       -5.5762081980
 H        -5.5968991717        6.8726373063       -4.5685497144
 H        -7.9860112329        7.3232199405       -8.1519723001
 H        -7.2120731005        8.7811522474       -7.2760782192
 H        -8.6043313679        7.9536874676       -6.4849036867
 H         0.4540609137        6.2789608129       -8.6974755482
 H         0.2343955792        5.1645554191      -10.0198366775
 H        -0.1970244151        4.7320754325       -8.3573590437
 H        -2.4872699099        7.8046062109      -10.5885032564
 H        -0.8471666855        7.3610250837      -11.0065556869
 H        -1.2373703291        8.3522699075       -9.6331601742
 H        -5.3181210762        4.0152421909      -14.1738080290
 H        -5.8669038267        5.5424678017      -13.6475895187
 H        -7.0833502871        4.3276241296      -14.1922916658
 H        -7.4152699875        5.2099640941      -10.4736163802
 H        -8.3630408320        4.5783670545      -11.6449831453
 H        -7.4351402992        5.9685698932      -12.0875718870
 Na       -5.3000369795        3.3636289914       -8.8307025256
 Na        1.8703160719       -7.4506511874      -10.9166503835
