232

 C        -7.3572282005        1.7928221784      -12.8444843677
 C        -6.6255558907        2.6499084972      -11.9312326750
 O        -6.3581405505        2.3518217009      -10.7778961208
 C        -6.3498779872        4.1725485997      -12.3296724114
 C        -4.9120215287        4.5900118439      -11.6312837974
 O        -4.9070306137        5.5517948929      -10.9108234065
 C        -3.6189063664        3.9203869549      -11.9617117599
 C        -2.4375161836        4.7325091939      -11.4947169015
 C        -2.3976189757        5.0053246195       -9.9147947731
 O        -3.0505407750        4.3325257931       -9.1812180885
 C        -1.4636838190        6.1320060315       -9.3426860146
 C        -2.0759741158        6.6335796903       -7.8849799925
 O        -1.3169665315        6.7427809616       -6.9963026852
 C        -3.7038374421        6.9881811662       -7.8531063117
 C        -4.3254137412        5.9564395315       -6.8111284256
 C        -5.8689942535        5.9566629761       -6.9061127153
 O        -6.5180873908        5.2064407678       -7.6158019460
 C        -6.7545161988        6.9405472610       -6.1099305929
 C        -7.8110751410        6.0090804010       -5.2468830683
 O        -7.5373103869        5.6003757089       -4.2014717300
 C        -9.1421987295        5.5439888105       -5.9508605184
 C        -9.9453388038        4.4716696814       -5.2710634667
 C       -10.5402609381        3.3825790712       -6.1898302013
 O       -10.4544648869        3.4477712862       -7.3997425329
 C       -11.1063712261        2.1124253622       -5.4177052149
 C        -9.7352066740        1.2078182385       -5.6168305024
 O        -8.9945848171        0.9760936623       -4.7055448422
 C        -9.4794152694        0.6325925496       -7.0978315767
 C        -8.1441688661       -0.1392332428       -7.0448281925
 C        -6.8193563039        0.7297107251       -7.3092136414
 O        -6.8837615563        1.7582351654       -7.9116509738
 C        -5.4913497525        0.2546954686       -6.6330520383
 C        -4.3175782919        0.4660573869       -7.5673433804
 O        -4.2980199914        1.4444357909       -8.3147652423
 C        -3.0197271490       -0.4378624195       -7.5387668934
 C        -2.0092831825       -0.2281864086       -8.6582808398
 C        -0.6115192050       -0.8527953558       -8.4178593704
 O        -0.4830011934       -1.7378172803       -7.5598033067
 C         0.5226744890       -0.1953027000       -9.3143487169
 C         1.8743330174       -1.0626058071       -9.1641446474
 O         2.9289199223       -0.5431118838       -8.9326335392
 C         1.8283749948       -2.5940538957       -9.3174942277
 C         3.1532865349       -2.9837448052      -10.0124419474
 C         3.4974367159       -4.4766604230      -10.1666837987
 O         2.8654885332       -5.2446450098      -10.8877145552
 C         4.5685107860       -5.2035285861       -9.1943788157
 C         4.8243216930       -6.7151921385       -9.4405457929
 O         4.2623050487       -7.3072841367      -10.3226882551
 C         5.9389738531       -7.3932512219       -8.6257323075
 C         5.6054873581       -8.8439822121       -8.1511383901
 C         4.3781303113       -8.9426338055       -7.2688506369
 O         3.7495344046       -7.9768511469       -6.8542187424
 C         3.7143145321      -10.2909807745       -6.8369731843
 C         2.2171112890      -10.3325015679       -7.4764029001
 O         2.1077864591      -10.8394291566       -8.5870968454
 C         1.1261688668       -9.6736707706       -6.7596343665
 C        -0.2230744894       -9.7403864477       -7.6581948577
 C        -0.0241581171       -9.1854183850       -9.1123826503
 O         0.1673800877       -8.0123570657       -9.3582753310
 C        -0.4739097885      -10.0895903786      -10.4289007250
 C         0.0969169193       -9.3972401433      -11.6618956199
 O         1.2517357887       -9.6509973839      -11.9584630332
 C        -0.7287444036       -8.4546338856      -12.4082432471
 C        -0.0748311080       -7.7871858408      -13.6968716462
 C         0.3491199737       -6.3702860845      -13.5823044224
 O         0.8504957441       -5.9345438213      -12.5156849478
 C         0.0750806505       -5.3961121384      -14.8322339752
 C        -1.3871033123       -4.6912325332      -14.5338630062
 O        -1.5979481100       -4.2767967971      -13.4124811477
 C        -2.3832417304       -4.5481513088      -15.7732824878
 C        -3.6432355006       -3.9016829512      -15.3202109828
 C        -4.3882262919       -4.5879345934      -14.1239788484
 O        -4.2402041639       -5.7829310401      -13.9554078629
 C        -5.3717196827       -3.7315698153      -13.2132692527
 C        -5.9871420667       -2.6534609355      -14.2291196783
 O        -5.2699331711       -1.6708080156      -14.4922242214
 C        -7.4171524924       -2.9844324104      -14.7919707171
 C        -7.6931157084       -2.0687304387      -16.0208533988
 C        -8.6457379416       -0.9378064602      -15.7202941787
 O        -8.7440500748       -0.5029775363      -14.5717379115
 C        -9.8293825922       -0.7769579993      -16.7325028977
 C        -9.3004933010       -1.1711797364      -18.1087958937
 O        -8.2666767089       -0.6484240318      -18.4992409138
 C       -10.1606998911       -2.0238380972      -18.9783825483
 C       -11.0281217588       -1.5660603611      -16.1031494305
 C       -10.3465237531        0.7247170810      -16.9544467310
 C        -6.4230781459       -4.7469299912      -12.6545934509
 C        -4.6662143522       -3.0067340897      -12.0200954740
 C         1.1190594733       -4.3113008655      -14.7432455714
 C         0.1638966329       -6.0915798626      -16.1378300165
 C        -0.0091128622      -11.5983514797      -10.2095129984
 C        -2.0209323353      -10.0339841509      -10.2724371116
 C         4.5204183102      -11.4813861033       -7.4205381594
 C         3.6917846467      -10.2318719109       -5.3115243974
 C         5.8267925845       -4.3059343195       -9.3431814347
 C         4.0477587149       -5.0168669272       -7.7682767521
 C         0.1132925265       -0.3207901216      -10.8482991972
 C         0.8346368656        1.1603664390       -8.7927290768
 C        -5.3312875502        1.0014555088       -5.3250313323
 C        -5.4945701000       -1.2845654992       -6.2536266870
 C       -11.5494284768        2.4731230757       -3.9891662968
 C       -12.2747502326        1.3919746140       -6.0926900342
 C        -5.9342731962        7.8235400813       -5.2004586964
 C        -7.5431160024        7.9085328320       -7.1517011037
 C        -0.0501855663        5.4670080301       -9.0531531040
 C        -1.2788326649        7.4270089872      -10.1031260084
 C        -6.1832839530        4.3990459946      -13.8917503915
 C        -7.5195963805        4.8519480855      -11.6297222804
 H        -8.2486246702        2.3538751842      -13.0488951751
 H        -7.5522828884        0.8068273894      -12.5195232185
 H        -6.9495076245        1.7302173449      -13.8619509631
 H        -3.5843196784        3.6669879732      -13.0093711036
 H        -3.6231086897        2.9025478645      -11.4808597553
 H        -2.4934022135        5.5926736604      -12.0649578709
 H        -1.4702359773        4.3025473199      -11.7034531395
 H        -4.2094519441        6.7461428672       -8.8184666738
 H        -3.8890341657        8.0329084520       -7.4599341310
 H        -3.9470917038        6.2746069746       -5.9001195081
 H        -3.9360691691        4.9901833786       -7.0011261810
 H        -8.7551703272        5.2100156272       -6.9163063909
 H        -9.6707759016        6.4625088677       -6.1142244583
 H       -10.9339176894        4.7091671062       -4.7641273257
 H        -9.4131129788        3.9982756025       -4.4854193036
 H        -9.7977043812        1.3840175600       -7.8260413465
 H       -10.1896022595       -0.1390422280       -6.9689134943
 H        -8.2054027047       -0.9738728894       -7.6973754376
 H        -8.0069074746       -0.6545080383       -6.0611669273
 H        -3.1759621589       -1.4877974020       -7.5493806947
 H        -2.4473338185       -0.3719641604       -6.5183854856
 H        -2.0738811028        0.8600916670       -8.9457739147
 H        -2.3113736485       -0.8707979778       -9.5550493231
 H         1.0321536825       -2.9398600214       -9.8753469606
 H         1.8041083589       -3.0716508265       -8.2786263014
 H         3.9305474549       -2.4523294402       -9.3881301474
 H         3.0969819583       -2.6519073366      -11.1001559463
 H         6.1402014373       -6.6691789881       -7.8175476433
 H         6.8673039057       -7.3273281796       -9.2218685749
 H         6.5057068341       -9.1921953744       -7.6968800900
 H         5.5585352940       -9.4658609835       -9.0369062245
 H         1.1818771274       -8.6443246380       -6.4101328845
 H         0.8202055676      -10.2907391453       -5.9849335332
 H        -0.9942844615       -9.2134822944       -7.2177194815
 H        -0.5287034234      -10.8717221374       -7.6658086137
 H        -1.2833402891       -7.7202042847      -11.7788064458
 H        -1.4520662873       -9.1420894410      -12.8803150653
 H        -0.7841311695       -7.9871476096      -14.5810944770
 H         0.7487041834       -8.3427256543      -13.9796978589
 H        -2.4541302032       -5.5641250483      -16.2070294653
 H        -1.8758030553       -4.0233131777      -16.5982825776
 H        -4.4254772614       -3.7751550245      -16.1826424503
 H        -3.5370324686       -2.8947478105      -14.9955725835
 H        -8.2597478436       -2.8397481135      -14.0038149939
 H        -7.5763958409       -4.0157521448      -15.1611692205
 H        -8.0139051288       -2.5195362335      -16.9432064260
 H        -6.6476412931       -1.6493407820      -16.4314848497
 H       -11.0980395751       -2.3336676556      -18.5470662439
 H        -9.6712833195       -2.9412560433      -19.3030730711
 H       -10.4392684434       -1.3776812523      -19.8325700087
 H       -10.6821081336       -2.5865459751      -16.0339036628
 H       -11.8109803522       -1.5472740246      -16.8978529057
 H       -11.2117160858       -1.0701868779      -15.1500331328
 H        -9.4972696849        1.2795894057      -17.4027161264
 H       -10.6499996994        1.2055477953      -15.9863175417
 H       -11.2267249731        0.5742199791      -17.4951510439
 H        -7.3872629180       -4.3119852991      -12.4278870242
 H        -5.8973351829       -5.2334656822      -11.7769459529
 H        -6.6784677977       -5.5919846774      -13.2919253683
 H        -4.0698319153       -2.1170052150      -12.3119887963
 H        -4.0091077154       -3.6420139495      -11.4684768353
 H        -5.3914417905       -2.7647453497      -11.2150581369
 H         1.0988174811       -3.5022909797      -15.4106676058
 H         2.1254885699       -4.6862399086      -14.6197679131
 H         1.0723711752       -3.7586335819      -13.7842143417
 H         0.0805355813       -5.5018481982      -17.0331521536
 H        -0.6128278780       -6.8927593676      -16.1951914173
 H         1.0762937854       -6.5849915926      -16.2035802385
 H        -0.4280107679      -12.2257545520      -11.0262138574
 H        -0.3416784731      -11.9528413979       -9.2643668889
 H         1.0162769900      -11.8559923785      -10.2539341937
 H        -2.3465277674      -10.5682003698      -11.1503661952
 H        -2.4349960327       -9.0268290958      -10.2790649515
 H        -2.2633265550      -10.6878438857       -9.4391610799
 H         5.3423489510      -11.6985481289       -6.8386322264
 H         4.7366833157      -11.3230807478       -8.4337181100
 H         3.8376839010      -12.3095490272       -7.4032832672
 H         4.7016908377      -10.3977827415       -4.8415421851
 H         3.0031983498      -10.8843521796       -4.8131376790
 H         3.3717256345       -9.1695103209       -5.2102256723
 H         6.5747285002       -4.9051340720       -8.9142852569
 H         5.6864624424       -3.3376684034       -8.9513878736
 H         5.9722035001       -4.0821441893      -10.4096088866
 H         3.6839684987       -5.8359761467       -7.3153616201
 H         3.2364463034       -4.2785105757       -7.6430517589
 H         4.9020988557       -4.8238491075       -7.0872543739
 H        -0.2249273927       -1.2167361689      -11.2385931883
 H         1.0813142033       -0.2475325922      -11.3405403255
 H        -0.4507087421        0.6275723158      -11.1433240980
 H         1.9189231748        1.3026298992       -8.8278824218
 H         0.6637826370        1.3322989094       -7.7337535966
 H         0.2945660636        1.9196217481       -9.2075205560
 H        -6.0838563479        0.7447958961       -4.5539254884
 H        -5.4303090658        2.0608036062       -5.4810581094
 H        -4.3569175752        0.8735293235       -4.8954950319
 H        -6.2950149758       -1.5960265987       -5.5346470862
 H        -4.5438713336       -1.6037422784       -5.8127409936
 H        -5.6295265897       -1.9436888164       -7.1265988966
 H       -12.2918989188        3.3496787479       -4.0222894384
 H       -10.7652404403        2.7472663470       -3.2839618021
 H       -12.0858566796        1.6490536572       -3.5053278097
 H       -13.1733002862        1.9797384305       -6.2222427640
 H       -12.4958538730        0.6136524457       -5.4088756920
 H       -12.0798367574        0.9802514479       -7.0914428355
 H        -6.5858164231        8.4796570725       -4.7175830649
 H        -5.2089007314        8.3237511230       -5.8344945395
 H        -5.3423496256        7.3311016898       -4.4152485062
 H        -8.1347627457        7.3524611946       -7.8003499402
 H        -6.7438619678        8.3272975998       -7.7589868841
 H        -8.1104312978        8.6494586434       -6.6325132974
 H         0.5993592254        6.2198418717       -8.5681716607
 H         0.4314049367        5.1383810015      -10.0145783503
 H        -0.0548048002        4.5897504877       -8.3280346806
 H        -2.0434864329        8.1650931189       -9.9831091907
 H        -1.1299526565        7.1671903679      -11.2022959612
 H        -0.3845990923        7.9369096412       -9.7361320699
 H        -5.2060679388        4.2471184710      -14.3896153559
 H        -6.5063443436        5.3999083448      -14.1842030779
 H        -6.8834607182        3.6691925053      -14.3251580457
 H        -7.4402173767        5.0067514850      -10.5288660525
 H        -8.4418747070        4.1977314774      -11.6458069251
 H        -7.7156924809        5.7292763691      -12.1672326125
 Na       -5.5123474871        3.4209095446       -8.9223741620
 Na        2.0229582485       -7.3288667996      -11.2104279335
