232

 C        -7.2237594521        1.5784385076      -12.8779830730
 C        -6.5981443508        2.7147166630      -12.0264088211
 O        -6.2876867601        2.3589787846      -10.8754389704
 C        -6.3323809511        4.1695566293      -12.3950987443
 C        -4.9737228881        4.6995954517      -11.7001038157
 O        -5.1643465935        5.5153350307      -10.8456720194
 C        -3.6151362012        4.0732652598      -12.0611474469
 C        -2.4156162833        4.8547567648      -11.5174104115
 C        -2.3620701363        4.9792538718      -10.0226643813
 O        -3.0098616010        4.2488685854       -9.2773531728
 C        -1.4574649404        6.0193753621       -9.3933188142
 C        -2.0538737358        6.4204940009       -8.0100240247
 O        -1.3584565184        6.7199533812       -7.0122823173
 C        -3.5407515605        6.8231604967       -7.7953112725
 C        -4.3559977801        5.9570674163       -6.7144562214
 C        -5.8774592786        6.0668219140       -6.8511615812
 O        -6.3502484319        5.2108076460       -7.6193090415
 C        -6.8107521272        7.0657826090       -6.0713684137
 C        -7.8745794270        6.0964118522       -5.2567823670
 O        -7.4956743845        5.7601506977       -4.1435812799
 C        -9.1467206496        5.5562372549       -6.0284814142
 C        -9.9465021141        4.5943546932       -5.3213946406
 C       -10.6274284072        3.4897547761       -6.3075892927
 O       -10.4342392016        3.5536661629       -7.4879261828
 C       -11.0444238721        2.1068532317       -5.4897868071
 C        -9.7901439213        1.1742401222       -5.5399458572
 O        -9.1044816168        1.0048218623       -4.5673431145
 C        -9.3872560375        0.6397484687       -6.9533741283
 C        -8.1287436914       -0.2033737219       -7.0822360499
 C        -6.9416337075        0.7041237598       -7.2741228321
 O        -6.9384235464        1.6498625863       -7.9590847032
 C        -5.4925652242        0.2699957638       -6.5318977378
 C        -4.1775506635        0.5687374318       -7.4865237959
 O        -4.1284699923        1.5963280134       -8.1302662538
 C        -3.0047667344       -0.3559729374       -7.3892587760
 C        -2.0653775660       -0.1114895299       -8.6352373985
 C        -0.6467893184       -0.8686730634       -8.5039616236
 O        -0.4888571091       -1.7418658196       -7.7203900445
 C         0.6581277879       -0.2409975497       -9.3057922837
 C         1.9810268003       -1.1589060855       -9.1135679997
 O         3.0190311502       -0.6033522870       -8.8966078152
 C         1.9680619421       -2.6690465382       -9.3345402644
 C         3.1862615279       -3.0219600908      -10.1882760881
 C         3.4026024179       -4.5464657598      -10.0461423070
 O         2.8948541135       -5.1785622709      -10.9304409760
 C         4.4594215077       -5.1864039940       -9.0877679013
 C         4.7236096837       -6.6964810578       -9.4783416789
 O         4.1042350366       -7.4011223698      -10.2430990319
 C         5.8654674704       -7.4275154783       -8.7891614941
 C         5.4428726533       -8.8809851269       -8.2727939313
 C         4.2706637605       -8.9031645687       -7.3734339708
 O         3.8940291490       -7.8992842360       -6.7794149091
 C         3.6936613773      -10.3174934909       -6.7646304583
 C         2.2524319385      -10.3672287617       -7.3325717810
 O         2.0247375868      -10.9007547407       -8.4078460230
 C         1.0839314357       -9.6802480042       -6.6403025798
 C        -0.1597061999       -9.5586877212       -7.6914128595
 C         0.0644707297       -9.1029941999       -9.1134993369
 O         0.4744620458       -7.9843183283       -9.3832930239
 C        -0.5029146076      -10.0626050125      -10.3246239655
 C         0.0849805102       -9.4251768500      -11.6208033882
 O         1.2834175876       -9.4838540901      -11.9086002697
 C        -0.9587114874       -8.4943534311      -12.4346355769
 C        -0.1468649547       -7.8288486385      -13.7148616245
 C         0.2204760816       -6.2968945122      -13.5836309949
 O         0.8575045211       -5.8087762250      -12.6931689033
 C         0.0115878574       -5.4789915154      -14.8563804981
 C        -1.4031295872       -4.7800244392      -14.6074826888
 O        -1.7673269811       -4.3428309439      -13.5302708208
 C        -2.3026575724       -4.5891793565      -15.7860710362
 C        -3.5995112812       -3.9746569659      -15.3423541948
 C        -4.3604615286       -4.6574949730      -14.1227971939
 O        -4.3901866941       -5.8448774330      -13.9728145216
 C        -5.4040355679       -3.7670706544      -13.1739763746
 C        -6.0548062442       -2.7966250395      -14.1286188731
 O        -5.4250483012       -1.8599280821      -14.6317972370
 C        -7.3941818174       -2.9758066677      -14.7342216451
 C        -7.6246227018       -1.9948057093      -15.9339063175
 C        -8.8016752945       -1.0358209228      -15.5528123416
 O        -8.8594022182       -0.4460816003      -14.5106287722
 C        -9.8927291164       -0.8214243271      -16.6857235901
 C        -9.2756109056       -1.1280135571      -18.1082938724
 O        -8.1963220846       -0.6291682506      -18.3946953023
 C       -10.0717577241       -1.9595449002      -19.1194891289
 C       -11.0689083053       -1.6106651552      -16.0315308027
 C       -10.3285199386        0.6821721509      -16.8589697785
 C        -6.4754172631       -4.7179581757      -12.6614116025
 C        -4.6213932629       -2.9725258937      -12.1062381932
 C         1.0080953955       -4.2422656829      -14.8614344706
 C         0.1555548859       -6.1545922066      -16.1928146933
 C         0.0687219751      -11.4909395235      -10.2061778294
 C        -2.0731694954      -10.0048586682      -10.3879863145
 C         4.6442490462      -11.4971493396       -7.3910670066
 C         3.7250885321      -10.2064256333       -5.2318496530
 C         5.9037941282       -4.3527292956       -9.3793769641
 C         3.9946122115       -5.1145557519       -7.5686799913
 C         0.2820749820       -0.2685327974      -10.7930634401
 C         0.9051227203        1.1113938856       -8.6944105638
 C        -5.2867049437        1.0793347240       -5.2190959047
 C        -5.5650849470       -1.2398235802       -6.1163749669
 C       -11.4801820900        2.3590626800       -4.0687207141
 C       -12.2273389274        1.3361523195       -6.1947407832
 C        -6.0216940566        7.8881967504       -4.9853689847
 C        -7.4692332861        7.9264925300       -7.1848702914
 C        -0.0848509272        5.3433220485       -8.9673322562
 C        -1.3255336677        7.3280077834      -10.2473437803
 C        -6.2501356739        4.3396395565      -13.9709163837
 C        -7.4346736186        4.9801783640      -11.7431604327
 H        -8.1140609609        1.9017869382      -13.4755548488
 H        -7.5011628261        0.8166887677      -12.1517391602
 H        -6.6406723400        1.1305582045      -13.6367981862
 H        -3.6222787647        3.9054036842      -13.1635071196
 H        -3.5651377608        3.0640627024      -11.6993689050
 H        -2.6508073599        5.8393147856      -11.9006516563
 H        -1.4330069004        4.6229661737      -11.8160137954
 H        -4.1504816253        6.8331857979       -8.6481210005
 H        -3.4106439623        7.8341433735       -7.3363951749
 H        -3.9514493458        6.2600084678       -5.7183975774
 H        -4.1222689510        4.9089378374       -6.9011589846
 H        -8.6583017468        5.2510950948       -6.9231639063
 H        -9.7134074788        6.5244877840       -6.2941604876
 H       -10.8454487629        4.9555750529       -4.7409948954
 H        -9.4115976765        4.0695759519       -4.5236384697
 H        -9.2963771284        1.6420995518       -7.4319148361
 H       -10.3175655539        0.1068171164       -7.3408707250
 H        -8.2487955983       -0.7119395486       -8.0470509624
 H        -7.8607790353       -1.0308184734       -6.4056208535
 H        -3.2365364023       -1.3880947908       -7.4473669533
 H        -2.4284181615       -0.3660480999       -6.4654726397
 H        -1.9212937844        0.9649819630       -8.6114481497
 H        -2.5560587202       -0.3600612093       -9.5947683094
 H         1.0393754928       -3.0261606774       -9.8431098238
 H         2.0227001436       -3.1197860139       -8.3923765967
 H         3.9612450487       -2.3769068722       -9.7559935374
 H         2.9545886722       -2.9514013778      -11.3024631940
 H         6.2003820239       -6.7393768783       -7.9470510266
 H         6.7569926546       -7.4447120658       -9.4416120876
 H         6.3519199232       -9.2544896650       -7.8296497083
 H         5.3181301563       -9.5269597562       -9.1606374389
 H         1.1546680526       -8.6563588351       -6.4509698072
 H         0.5903754258      -10.1256563875       -5.8078457534
 H        -0.8357096468       -8.7264372246       -7.2891790763
 H        -0.7071295484      -10.4541226023       -7.6907117397
 H        -1.0735637364       -7.6592754330      -11.7761332749
 H        -1.9112220025       -8.9169100490      -12.7145009654
 H        -0.6134342760       -8.0880260046      -14.6769562460
 H         0.9363477510       -8.3517905789      -13.8513305097
 H        -2.2351100424       -5.5482129975      -16.3915913829
 H        -1.7537237248       -3.8902401098      -16.4952642852
 H        -4.3722970584       -4.1889150885      -16.0541454506
 H        -3.6598854212       -2.8436936687      -15.3001004590
 H        -8.2624964831       -2.9053402748      -14.1124327407
 H        -7.5324658843       -3.9478335446      -15.2048990031
 H        -7.8000542643       -2.5035202051      -16.9224615172
 H        -6.8031069522       -1.3310680887      -16.2744084807
 H       -11.0015299889       -2.3554182863      -18.7651740154
 H        -9.4619852672       -2.8789553904      -19.3069128845
 H       -10.3213136302       -1.4133748937      -20.0247461284
 H       -10.6509195706       -2.5804849882      -15.7662436414
 H       -11.7905357047       -1.7613033864      -16.8180780982
 H       -11.3569849317       -0.9555109255      -15.1819621724
 H        -9.5123268600        1.1539089272      -17.3317190926
 H       -10.5436071238        1.0921328575      -15.8922662277
 H       -11.3016571306        0.6275649006      -17.3936276612
 H        -7.4687049368       -4.2657694530      -12.5896304385
 H        -6.1254332871       -5.1159942124      -11.6501574984
 H        -6.6532062382       -5.6733126103      -13.2801564673
 H        -3.9719220297       -2.2589583148      -12.6060211936
 H        -3.9943152959       -3.6334617929      -11.4343998500
 H        -5.2083689208       -2.4825280075      -11.3706511314
 H         0.9626799601       -3.5963421663      -15.6920945880
 H         2.0320830606       -4.4667661022      -14.6390741814
 H         0.8340560370       -3.5236464630      -14.0782645239
 H        -0.0133840363       -5.4432609295      -16.9991179111
 H        -0.5330028356       -6.9936392626      -16.3716483919
 H         1.1772082065       -6.5182902559      -16.3723736823
 H        -0.3873161501      -12.0818970367      -10.9536694134
 H         0.0820861691      -12.0183166950       -9.2465823947
 H         1.0522316244      -11.5548896080      -10.6078328204
 H        -2.3557515283      -10.7220968173      -11.0993216861
 H        -2.4263890305       -9.0259008967      -10.7126707583
 H        -2.4826081995      -10.2842330812       -9.4484850871
 H         5.6513201835      -11.3900581265       -7.0258664941
 H         4.4843091643      -11.5117423972       -8.4879553402
 H         4.2083921896      -12.4656921367       -7.0984296061
 H         4.7548416979      -10.1722430905       -4.9278655032
 H         3.3387022953      -11.1457720483       -4.8190796465
 H         3.1928535023       -9.3413652884       -4.9083258442
 H         6.5408727292       -5.0933638798       -8.9568532806
 H         5.9039820835       -3.3851500001       -8.9234213687
 H         6.0740982690       -4.1403429055      -10.4270839654
 H         3.1536918248       -5.8764089047       -7.4072437253
 H         3.5054342629       -4.2077013661       -7.2397664577
 H         4.6848856699       -5.4963571762       -6.8844806436
 H         0.0401480814       -1.2590067241      -11.2488735282
 H         1.1105255738        0.0650188763      -11.4530294872
 H        -0.5106341313        0.5026638125      -10.8359229644
 H         1.9309572385        1.3540053453       -8.5036526058
 H         0.3863214808        1.4287916749       -7.7203348011
 H         0.4642013164        1.8473918707       -9.3349455188
 H        -6.0500024389        0.8470896711       -4.4881832180
 H        -5.3488421715        2.1636354518       -5.3779299830
 H        -4.3077335783        0.9502218857       -4.7412613172
 H        -6.1198076919       -1.5503868936       -5.2230868489
 H        -4.5893006334       -1.7365881063       -5.9272043910
 H        -6.0151681917       -1.8272586786       -7.0010398795
 H       -12.2037162215        3.2058006502       -4.0055717762
 H       -10.6479257846        2.6019623034       -3.3582502652
 H       -11.9635697470        1.4946685306       -3.6429154844
 H       -13.2245385900        1.8397108153       -6.0803237796
 H       -12.2765056739        0.3915996845       -5.6802069238
 H       -12.0833601127        1.1582762150       -7.2610430243
 H        -6.7361210361        8.5713018644       -4.4383523032
 H        -5.2118417694        8.3930087225       -5.4812444171
 H        -5.5423210731        7.2842894179       -4.2188449956
 H        -8.3471289044        7.4147252756       -7.5359603456
 H        -6.7887147230        7.8927664866       -7.9741890734
 H        -7.7222005000        8.8929916977       -6.7837394699
 H         0.4538436269        5.8864231873       -8.2453063468
 H         0.5054040983        5.2387146117       -9.9378660543
 H        -0.1930299455        4.3492184896       -8.5615661780
 H        -2.2656309375        7.9255883560       -9.9910156998
 H        -1.3338524131        7.1659939563      -11.3006386880
 H        -0.5109890290        8.0530306282       -9.9613499312
 H        -5.3138313237        4.0113542923      -14.4099205678
 H        -6.2424782295        5.4309562163      -14.1112904486
 H        -7.0358718583        3.8411424331      -14.5422348075
 H        -7.4000469315        4.7777660820      -10.6290001884
 H        -8.4707612250        4.6136308472      -11.9172869000
 H        -7.3167342828        6.0868940730      -11.9940657976
 Na       -5.5311920061        3.4278216035       -8.9961324258
 Na        2.1133806544       -7.3973005918      -11.1936201784
