232

 C        -6.7792327777        1.5796338063      -13.1302339278
 C        -6.5140499471        2.6432980974      -12.1205723833
 O        -6.1024498734        2.4264980831      -10.9836877872
 C        -6.4201503511        4.1217305058      -12.5479310953
 C        -5.2140223714        4.7375582500      -11.8202179866
 O        -5.3589440685        5.2956292983      -10.7572247100
 C        -3.8728503541        4.3942427095      -12.3612870755
 C        -2.7039453833        5.1857217904      -11.7502353522
 C        -2.4861044278        4.8981570489      -10.1892491952
 O        -2.9996401362        3.9954456381       -9.5716658853
 C        -1.5531610293        5.7837072204       -9.3528671597
 C        -2.1679233741        6.1516396698       -7.9856158880
 O        -1.4292050307        6.3777965637       -6.9917917317
 C        -3.6225973400        6.5349723808       -7.8960075645
 C        -4.2783024322        6.0892756106       -6.4859472758
 C        -5.7969859998        6.0376217998       -6.7421214427
 O        -6.2247465300        5.2535185785       -7.5812205180
 C        -6.7516392729        7.1003729663       -6.0700295800
 C        -7.9739659906        6.2724920386       -5.4085979999
 O        -7.9003316937        5.9736910920       -4.2248981435
 C        -9.0578506075        5.5839953709       -6.2435949096
 C        -9.7538508482        4.6826330295       -5.3299383961
 C       -10.4723372836        3.6554481129       -6.2281412277
 O       -10.5377650035        3.7654807928       -7.4218440795
 C       -10.9416235507        2.2238934468       -5.6181457317
 C        -9.7158930938        1.1707713460       -5.6532610995
 O        -9.0796582420        0.8212835481       -4.6933016644
 C        -9.2125736518        0.6563108977       -7.0735725366
 C        -7.9239684081       -0.0231534256       -6.8365197016
 C        -6.6146902217        0.8009549297       -7.2010220644
 O        -6.6742292360        1.6949954810       -7.9383147632
 C        -5.3007447716        0.3356783411       -6.3583504731
 C        -4.0077294536        0.7642149522       -7.1813903099
 O        -3.8980490969        1.8820273039       -7.6513582605
 C        -2.9419656830       -0.2939262884       -7.4299830909
 C        -1.8601467466        0.1314879429       -8.3594356976
 C        -0.5894396033       -0.7799499994       -8.4903305740
 O        -0.6198012432       -1.9257702243       -8.1627164861
 C         0.7133579742       -0.2209540860       -9.1115978478
 C         2.0394103721       -1.0591960171       -8.8942918795
 O         3.1243322617       -0.6204317718       -8.6032190448
 C         1.8809625480       -2.5698284269       -9.3279674406
 C         3.2599744012       -2.9921629210       -9.9483425375
 C         3.5461929784       -4.5453930333      -10.1712211822
 O         2.8242361597       -5.0783058743      -10.9662235024
 C         4.5101278980       -5.2765557679       -9.2074272182
 C         4.5199510286       -6.9214819567       -9.3139346864
 O         3.7439719956       -7.4492731468      -10.0476430986
 C         5.7322555971       -7.6220634961       -8.7237479959
 C         5.3708674715       -9.0516609219       -8.3273378925
 C         4.3315640617       -9.0407491133       -7.2090232493
 O         4.0300492695       -7.9835650885       -6.6372053810
 C         3.7765885780      -10.3788665217       -6.6553122545
 C         2.2650178129      -10.4342273017       -7.1489961931
 O         2.0268510133      -11.1574569614       -8.0975628162
 C         1.3392111951       -9.2834341339       -6.7124327656
 C         0.0434019763       -9.4531996808       -7.5966109190
 C         0.3578987318       -9.0188392580       -9.0601953015
 O         1.3431720179       -8.3676218243       -9.2819518429
 C        -0.4475652491       -9.7395038996      -10.2793802550
 C        -0.0520643580       -9.1708744588      -11.6122944104
 O         1.0875986458       -9.2264892345      -12.0333685307
 C        -0.9777978335       -8.2867389449      -12.4887100477
 C        -0.3619677071       -7.9553552211      -13.9020375480
 C         0.2158939957       -6.4847243100      -13.9114345437
 O         0.7433686780       -5.9977060945      -12.9556289440
 C        -0.1724579504       -5.4685543011      -15.0686981918
 C        -1.6028213492       -5.0255843080      -14.7080024050
 O        -1.8910072996       -4.6384977041      -13.5919322934
 C        -2.5730123309       -5.0451876589      -15.8849090635
 C        -3.7251026030       -4.2263951069      -15.5003051226
 C        -4.5015604559       -4.8840621871      -14.2422031052
 O        -4.4548763496       -6.0806720865      -14.1385521702
 C        -5.3464142108       -3.9037442402      -13.2770739640
 C        -6.0753508726       -2.8008478391      -14.1382036146
 O        -5.4148374278       -1.8243881246      -14.5213203307
 C        -7.6309876537       -2.9268904712      -14.4702227361
 C        -7.9733804425       -2.1133606210      -15.7779058217
 C        -9.0447273152       -1.0433443874      -15.5471348710
 O        -9.0766283873       -0.4930392752      -14.4723780705
 C       -10.1167676135       -0.7470477946      -16.6944496529
 C        -9.3015965598       -0.9564228558      -18.0438379363
 O        -8.1612119366       -0.5424380461      -18.1098603341
 C       -10.0302334317       -1.7456806884      -19.0980141113
 C       -11.3391235738       -1.7315938591      -16.5921686795
 C       -10.6255869676        0.6772089084      -16.4891273624
 C        -6.3633501812       -4.7520450362      -12.4433048371
 C        -4.2120574144       -3.2914481776      -12.3934974383
 C         0.7909905972       -4.2786670485      -14.9861069524
 C         0.0000202495       -6.1525612583      -16.3979310973
 C         0.1161135429      -11.1852632425      -10.3811645595
 C        -1.9417784089       -9.6786772304       -9.9492624735
 C         4.5391709091      -11.6205380027       -7.0716029170
 C         3.5866450812      -10.1400012699       -5.0589132259
 C         5.9326407052       -4.6833980417       -9.3080123293
 C         3.7746836513       -4.9105389426       -7.8175502666
 C         0.5016825461       -0.0619853417      -10.6717181035
 C         1.0365169467        1.1596310878       -8.5612230026
 C        -5.4614806641        1.3762340177       -5.2506594877
 C        -5.1280853008       -1.1010307003       -5.8609804172
 C       -11.4989712966        2.3499933237       -4.1540479364
 C       -12.1429972898        1.6631750843       -6.4998642496
 C        -5.9379500494        7.8258851489       -4.9849000964
 C        -7.2104772468        8.0592414438       -7.2302824299
 C        -0.2446835569        4.9669084058       -9.1977516820
 C        -1.2398364525        7.2371083206      -10.0019961499
 C        -6.1244902679        4.2487936940      -14.0528556662
 C        -7.8147696033        4.8742576977      -12.1733275715
 H        -7.1775839740        2.0198525769      -14.0477884087
 H        -7.5440677765        0.9449614516      -12.7418318928
 H        -6.0058948325        0.9218462405      -13.5192111324
 H        -3.7914868783        4.2996901722      -13.4394737420
 H        -3.6783686664        3.3322120010      -12.0102840832
 H        -3.0093129839        6.2187854825      -11.7855491428
 H        -1.7870880948        5.0909356598      -12.3713593477
 H        -4.2802319974        6.0527844356       -8.6239350849
 H        -3.7172047336        7.6778488549       -8.0658055162
 H        -3.9445013473        6.7455862662       -5.7355332415
 H        -3.9501678406        5.1055777930       -6.3060465475
 H        -8.4518325658        5.1486553434       -7.0349641979
 H        -9.6774875614        6.2717392756       -6.7752649750
 H       -10.4695697003        5.2422693012       -4.6637500336
 H        -9.2068896314        4.1163346840       -4.6691870147
 H        -9.2588825398        1.5046091746       -7.7258128491
 H        -9.9763529398        0.0168417198       -7.3623621862
 H        -7.8367000463       -0.9530365017       -7.3405549587
 H        -7.7816625094       -0.3016752409       -5.7592491943
 H        -3.2306060872       -1.2546437484       -7.8078075071
 H        -2.4431442948       -0.6255911886       -6.4120128948
 H        -1.5482585521        1.0778687771       -7.8608709592
 H        -2.3073154623        0.5311364195       -9.3134194899
 H         1.1385944673       -2.7516332988      -10.0913419891
 H         1.4699938664       -2.9961707348       -8.3843024124
 H         3.9769440616       -2.5258421445       -9.2621452023
 H         3.1855122920       -2.5603832139      -10.9694123025
 H         6.0071234018       -7.0690394122       -7.8217716432
 H         6.5216173947       -7.4333294535       -9.4350368604
 H         6.2537278709       -9.6205673904       -8.0097125434
 H         4.8636541935       -9.5662164190       -9.1450804296
 H         1.7255685010       -8.2984312530       -7.0676400080
 H         1.0290112256       -9.1507677316       -5.7129973765
 H        -0.8130175362       -8.8401860091       -7.4546320428
 H        -0.2871438665      -10.5401412746       -7.5621063029
 H        -1.2912759019       -7.3473036859      -11.9346219721
 H        -1.9074924793       -8.9024347739      -12.6538159298
 H        -1.1093236586       -8.0872205146      -14.6885814732
 H         0.3803348912       -8.6710434370      -14.1455758941
 H        -2.9001898509       -6.0836896990      -16.0575086060
 H        -2.1313104768       -4.7580065230      -16.8055854421
 H        -4.4821044764       -4.2335975048      -16.3436681153
 H        -3.5195828776       -3.1867066129      -15.2602932314
 H        -8.2299096176       -2.4364255328      -13.6051612113
 H        -7.9670832003       -3.9966868074      -14.5320169425
 H        -8.3137086407       -2.6628224835      -16.6230308962
 H        -7.0107766358       -1.6242507613      -16.1634768282
 H       -11.0413646576       -1.9238815556      -18.8559681447
 H        -9.5447937201       -2.7287904667      -19.2515503302
 H       -10.0704469165       -1.1577080141      -20.0310698843
 H       -11.0615736456       -2.6608920151      -16.9913473836
 H       -12.1789271595       -1.2693030901      -17.1206824025
 H       -11.5556313886       -1.6882797553      -15.5358168169
 H        -9.7606726411        1.3408884801      -16.6259568923
 H       -11.0978095234        0.6069758841      -15.4833079550
 H       -11.4043175694        0.9184074186      -17.2256895025
 H        -6.6090100444       -4.3742607161      -11.5107234376
 H        -5.8498069593       -5.6836708261      -12.1695494785
 H        -7.2335769213       -4.9591125244      -13.0220576087
 H        -3.5174562412       -2.7588774328      -13.0476918002
 H        -3.7351031322       -4.0380839434      -11.7518534772
 H        -4.5862030668       -2.4788791073      -11.7392933278
 H         0.5589069121       -3.3811886981      -15.5234211030
 H         1.8717478987       -4.3914339896      -15.2172152637
 H         0.7772549025       -3.8861931083      -13.9318323327
 H         0.1003836339       -5.4229634408      -17.1734575852
 H        -0.7668226149       -6.8879543503      -16.7308454580
 H         0.9351073942       -6.6165201119      -16.4317038008
 H         0.0087328545      -11.8534833954      -11.2676938352
 H        -0.1819778604      -11.7787104207       -9.4996341773
 H         1.1881070091      -11.1216777029      -10.3690576109
 H        -2.6612196124       -9.8691078121      -10.7738608242
 H        -2.1513811845       -8.6750681208       -9.4549045659
 H        -2.1266199740      -10.3448214192       -9.0697606114
 H         5.5137023675      -11.5722741715       -6.7254829847
 H         4.4299870824      -11.7676183084       -8.1333052179
 H         3.9913801032      -12.4649936058       -6.6544452779
 H         4.6167843121      -10.1750841762       -4.6525491081
 H         2.9989862845      -11.0000200942       -4.7075526174
 H         3.1264219502       -9.1678418685       -4.8048200610
 H         6.4354527345       -4.7598962046       -8.3462377335
 H         5.7246821190       -3.6380143276       -9.5379070142
 H         6.4505430361       -5.1741948539      -10.1766561271
 H         2.6830775830       -5.0557337485       -7.7898732387
 H         3.9884398962       -3.8425804966       -7.6068339308
 H         4.1134224958       -5.4717983074       -6.9567319762
 H         0.4770186837       -1.0395134160      -11.0806938429
 H         1.2610752269        0.5332907411      -11.1377200971
 H        -0.5034778433        0.3426602957      -10.9432447190
 H         2.0134309452        1.5713289761       -8.8356322456
 H         1.0020445905        1.0667349288       -7.4403413147
 H         0.3505619036        1.8820059469       -8.7452203204
 H        -6.4669628705        1.2632929407       -4.8064346708
 H        -5.3069415665        2.4063890102       -5.5253688006
 H        -4.7608711416        1.2214638375       -4.4509480602
 H        -5.9214833506       -1.4309508521       -5.2308302980
 H        -4.3297540938       -1.2313492254       -5.2031473854
 H        -5.1419580222       -1.8451274669       -6.6388998018
 H       -12.4302743774        2.9596338401       -4.2136907998
 H       -10.8601425310        2.9089544238       -3.4810610393
 H       -11.7125900283        1.4245916214       -3.7083134344
 H       -13.0926220090        2.1175214054       -6.1969121671
 H       -12.1855784941        0.6063258741       -6.5460488044
 H       -11.9035842746        1.9581407572       -7.5442181238
 H        -6.6734181971        8.3883168425       -4.4387999129
 H        -5.1518414016        8.4707354034       -5.3430504930
 H        -5.5522559868        7.1163984438       -4.2567371666
 H        -7.7958215469        7.3641336392       -7.8274610958
 H        -6.3256994802        8.3479207676       -7.8097164220
 H        -7.8269640871        8.8581883513       -6.7844159572
 H         0.3979436565        5.4336140121       -8.4970709069
 H         0.2738946119        4.6168893915      -10.1619656258
 H        -0.5497097210        4.0714136395       -8.6291605340
 H        -2.0363291142        7.6183301127      -10.6160420424
 H        -0.3709083181        7.1524992322      -10.6442911566
 H        -0.9392634316        7.9286164039       -9.2333437263
 H        -5.3845065606        3.4496176201      -14.1175692006
 H        -5.6949781003        5.1620917093      -14.4667249147
 H        -6.9423072754        3.9358230486      -14.7233537890
 H        -8.3255873478        4.3561293560      -11.3612507676
 H        -8.4957121160        5.0025002629      -12.9743940254
 H        -7.5543232084        5.8174933901      -11.8053556023
 Na       -5.2717864046        3.4624443011       -8.8098542940
 Na        1.9174322672       -7.2283982355      -11.2743309081
