232

 C        -6.8349444778        1.3808357329      -13.0938858216
 C        -6.3154691679        2.5607197615      -12.1674445445
 O        -6.1937442286        2.3544444363      -10.9905154785
 C        -6.3714953183        4.0176745482      -12.7221143195
 C        -5.2886659805        4.8155207851      -11.8525035759
 O        -5.5950309537        5.2764988902      -10.7594324193
 C        -3.8240634916        4.6731056739      -12.3810008180
 C        -2.7509411810        5.5245295237      -11.6577013607
 C        -2.5320113046        4.9007303614      -10.3080813945
 O        -3.0552587076        3.8577804605       -9.9318961556
 C        -1.4185681085        5.8044023437       -9.3729857724
 C        -2.1310831235        6.0208579479       -7.9277865419
 O        -1.5677704673        5.8662557008       -6.9064418202
 C        -3.5481722934        6.3692010496       -7.9861240748
 C        -4.2797257753        5.9889356420       -6.7181948672
 C        -5.7640420188        5.9843483480       -6.7949414008
 O        -6.3488490376        5.0746508045       -7.3802963286
 C        -6.6278776400        7.0380696886       -6.0311508751
 C        -7.8066607977        6.3569827471       -5.2612989878
 O        -7.8111167022        6.4242157222       -4.0827670114
 C        -8.9432275944        5.6172501282       -6.1041290900
 C        -9.7391498358        4.5595329499       -5.4187607023
 C       -10.5111777165        3.5972549150       -6.5087736209
 O       -10.5816237891        3.7530442689       -7.7063980346
 C       -10.9791389238        2.2375288521       -5.8519127580
 C        -9.7084291090        1.2334318133       -5.7379026218
 O        -9.2018067934        1.0219173253       -4.6641410461
 C        -9.0061981103        0.7706034339       -7.1188522980
 C        -7.7594331993       -0.1075519650       -6.9041601424
 C        -6.4982382229        0.8256868942       -7.0924026719
 O        -6.5095345166        1.6707084112       -8.0229566530
 C        -5.1497211634        0.5656846041       -6.1926698170
 C        -3.8614783577        0.9227063506       -7.1217861829
 O        -3.5801107742        2.0406276603       -7.5334118783
 C        -2.9411605512       -0.2944990122       -7.4925859996
 C        -1.6032426693        0.3752017568       -8.0854037971
 C        -0.5881613255       -0.6768280389       -8.4949129189
 O        -0.7528412308       -1.9058646083       -8.4660955345
 C         0.7912594858       -0.1220083341       -9.0612846215
 C         2.0061688195       -1.0254743946       -8.9256849233
 O         2.9088923887       -0.6554365999       -8.2079089486
 C         2.0265584699       -2.4936483304       -9.4185373147
 C         3.4700167025       -2.9143785169       -9.8976423573
 C         3.5490010107       -4.4449868370      -10.1669962538
 O         2.8165876805       -4.7966847551      -11.0873686477
 C         4.4447702954       -5.3428529415       -9.0515872792
 C         4.4781566371       -6.8912018910       -9.3499618731
 O         3.7858831325       -7.5093135723      -10.1353405049
 C         5.7237583002       -7.5835456133       -8.6184879659
 C         5.4774347915       -8.9860792403       -8.2116668578
 C         4.4877257167       -9.0124597048       -6.9692375623
 O         4.0513609826       -7.9738120106       -6.5329406124
 C         3.8811393208      -10.4211900330       -6.3953891185
 C         2.2957787003      -10.4884756787       -7.0249876169
 O         2.0769466481      -11.3877078964       -7.8228392854
 C         1.3052036591       -9.4416699645       -6.7367387590
 C         0.0706729526       -9.2987445514       -7.7033402134
 C         0.5343197019       -9.0426546441       -9.2093006619
 O         1.4833009917       -8.2894050115       -9.3215974372
 C        -0.3798761025       -9.6566607460      -10.3232051073
 C        -0.1187638971       -9.0591067275      -11.7821533539
 O         1.0305781358       -9.1951854056      -12.1650901329
 C        -1.1632500385       -8.4108223520      -12.4943484035
 C        -0.7445248621       -7.8858480765      -13.8919307626
 C         0.1488899931       -6.5874045689      -14.0024638015
 O         0.8465283603       -6.3029783045      -13.0585327735
 C        -0.1588695164       -5.5636145794      -15.2032543082
 C        -1.6734435867       -5.1965239632      -14.9622245114
 O        -1.8532623431       -4.7944646629      -13.8320461360
 C        -2.8039655844       -5.3072148773      -15.9980442100
 C        -4.0571277979       -4.4044673619      -15.6859669404
 C        -4.7206882625       -4.9669623824      -14.3613249484
 O        -4.7665260315       -6.1819203094      -14.2246819985
 C        -5.4099452685       -3.9524595105      -13.3018307753
 C        -6.1450300619       -2.6985704845      -14.0442198498
 O        -5.4838754591       -1.7779068841      -14.4042005889
 C        -7.6590554809       -2.8010826345      -14.2513272275
 C        -8.2102354681       -2.3124452541      -15.5483770205
 C        -9.1918547416       -1.1630754633      -15.4199184217
 O        -9.3105901898       -0.5869852644      -14.3398993961
 C       -10.2154895795       -0.8745164319      -16.7038258805
 C        -9.4088399889       -0.8149429836      -18.0752149908
 O        -8.3406043555       -0.2246796768      -18.0278142551
 C        -9.9245447083       -1.3621107159      -19.3778882207
 C       -11.4272743497       -1.8895483653      -16.5360573065
 C       -10.6861265661        0.6410157455      -16.5333299090
 C        -6.1876050006       -4.8710841136      -12.2732888078
 C        -4.1683261229       -3.3534494828      -12.5044736725
 C         0.6857567692       -4.4035902680      -15.0678263332
 C         0.0398646251       -6.2293741708      -16.5864042991
 C        -0.1862992719      -11.2180635947      -10.3595981923
 C        -1.8389180806       -9.3619612892       -9.8086273798
 C         4.5243129128      -11.8072206755       -6.6797203092
 C         3.6157655098      -10.3210754941       -4.8219896125
 C         5.9238269636       -4.6863741080       -9.3212618144
 C         4.0196797235       -5.1737589939       -7.6013050027
 C         0.4462154270        0.1830422675      -10.5667694874
 C         1.1994393205        1.2606335205       -8.4787759850
 C        -5.2624999371        1.5072568145       -5.0275252157
 C        -5.1682599105       -0.8662956807       -5.6980859991
 C       -11.3528818047        2.4136421605       -4.3234161490
 C       -12.1224848012        1.5895619000       -6.5863942336
 C        -5.9587129134        8.0127470323       -4.9805181993
 C        -7.2361661290        8.0508347071       -7.1884497140
 C        -0.2652018358        4.9072367002       -9.1483537794
 C        -1.0239601073        7.1562619867      -10.0401087382
 C        -6.2367654436        4.2983223294      -14.1846510527
 C        -7.7467164952        4.5324418225      -12.3206324698
 H        -7.4731346495        1.6238128630      -13.9168794672
 H        -7.1590677093        0.4790412826      -12.5572216925
 H        -5.9530881295        1.0940191625      -13.6738875591
 H        -3.7465411211        4.9015540376      -13.4564536694
 H        -3.5005367006        3.6540584158      -12.3234781538
 H        -3.0415532758        6.5710081662      -11.5881458195
 H        -1.8340026733        5.5021016974      -12.2126827188
 H        -4.1151052847        6.0478521087       -8.8789883857
 H        -3.6068155414        7.4151279534       -8.0311827409
 H        -3.8365653239        6.6809438492       -5.9836881883
 H        -4.0439880632        4.9110444665       -6.4648822175
 H        -8.5792389143        5.2725020612       -7.1069833134
 H        -9.4502849062        6.5343776554       -6.4523360598
 H       -10.4605262796        4.9320628664       -4.7350506471
 H        -9.2005811178        3.7175987247       -4.8202429343
 H        -8.8391419474        1.7350386118       -7.6719320500
 H        -9.8886301145        0.2990476391       -7.7145089076
 H        -7.5674877498       -0.8023921737       -7.7810866121
 H        -7.6194211400       -0.6480483745       -6.0078297372
 H        -3.4537065729       -1.0276292523       -8.1769415544
 H        -2.6453990574       -0.9075409072       -6.7307537098
 H        -1.3875689123        1.1354604319       -7.3312554464
 H        -1.7648198905        1.0122724071       -8.9508839141
 H         1.2498043272       -2.5560072519      -10.1872023665
 H         1.6758829850       -3.1244506474       -8.5877933135
 H         4.1573225109       -2.6832270040       -9.0369391291
 H         3.7248054163       -2.4499387148      -10.8673406111
 H         6.1027179831       -6.9640375128       -7.7882655579
 H         6.5105894481       -7.5282045471       -9.4542121948
 H         6.4020318380       -9.4511661090       -7.7986823019
 H         5.1305137167       -9.5212862289       -9.1068764456
 H         1.6965196481       -8.4593826401       -6.6670282778
 H         0.7877184002       -9.5403731088       -5.7482853595
 H        -0.6218938259       -8.4973080021       -7.3416026304
 H        -0.4062945429      -10.2903600821       -7.6611170046
 H        -1.3903357624       -7.6144055447      -11.8034353621
 H        -2.0480343444       -9.0203349065      -12.4839600742
 H        -1.7182526946       -7.7825157208      -14.5171091154
 H        -0.2229421705       -8.7361019827      -14.4386974080
 H        -3.2252896386       -6.3622474129      -16.0426396742
 H        -2.3565565382       -5.1460294611      -17.0555642277
 H        -4.8460396299       -4.5531752109      -16.4184367946
 H        -3.9402857931       -3.3467195835      -15.4861410408
 H        -8.1051570808       -2.3993267902      -13.3634948531
 H        -7.8026259648       -3.8845661505      -14.1879693761
 H        -8.7652526148       -3.1665502918      -16.1165507735
 H        -7.3525106213       -2.1197056776      -16.2022996794
 H       -10.8695557793       -0.8320539659      -19.6772922097
 H       -10.0717144406       -2.4285645377      -19.3416314756
 H        -9.1580826633       -1.1246490717      -20.1238983114
 H       -10.9431010595       -2.8814491763      -16.7338255537
 H       -12.2548134013       -1.6048137669      -17.1817001812
 H       -11.7056304516       -1.7239219558      -15.5036413321
 H        -9.7544687239        1.2055706093      -16.4641793698
 H       -11.2627372125        0.5993463951      -15.6290794123
 H       -11.1791946522        1.0469337330      -17.4070090864
 H        -6.0059754822       -4.5556217107      -11.1857326077
 H        -5.7147755786       -5.8254447668      -12.1485596406
 H        -7.2230629057       -5.0171802335      -12.5956222460
 H        -3.6224595009       -2.6135198082      -13.1126349072
 H        -3.5228004804       -4.2095436029      -12.3280440789
 H        -4.3802655277       -2.8152323277      -11.5641898328
 H         0.4952021579       -3.5113016100      -15.6561278038
 H         1.6299884606       -4.6261722224      -15.4804396814
 H         0.8534088104       -4.0010819248      -14.1141383807
 H        -0.2655720442       -5.6114215543      -17.4343668708
 H        -0.4986129137       -7.1318484789      -16.6204167397
 H         1.0934517727       -6.5123015936      -16.7945868906
 H        -0.7637466001      -11.7183931227      -11.1167082383
 H        -0.5713827461      -11.7139659286       -9.5061985945
 H         0.8024701106      -11.5926673168      -10.6080710850
 H        -2.5922695748       -9.7749484064      -10.4762953135
 H        -2.0660031762       -8.3595738837       -9.6023370340
 H        -2.0075427392       -9.8540923993       -8.8741165911
 H         5.1894485561      -12.0337008553       -5.8339106957
 H         5.0450700069      -11.8142150011       -7.6203013233
 H         3.7443206593      -12.5339656365       -6.7685113945
 H         4.4312723255      -10.8050609556       -4.3015744278
 H         2.6394154877      -10.7497958511       -4.6125262742
 H         3.6095840360       -9.2486410378       -4.5869050404
 H         6.5123516145       -4.7056270526       -8.4141451617
 H         5.7292986856       -3.6401344043       -9.4680191922
 H         6.3031058962       -5.2287897398      -10.1342276343
 H         3.1935352008       -5.7864013789       -7.3669557163
 H         3.7974818427       -4.1228097354       -7.3625174385
 H         4.8115604566       -5.3425940861       -6.7970030656
 H        -0.2443389893       -0.6267704182      -10.9434231210
 H         1.4166199579        0.2380523398      -11.1256613311
 H        -0.0968534652        1.0659651996      -10.8321138199
 H         1.9882618619        1.7037759054       -9.1429600296
 H         1.5774554423        1.0241623518       -7.5212446526
 H         0.5702622282        2.1851107746       -8.3623503452
 H        -6.1096809114        1.2080360545       -4.4398233760
 H        -5.4391000282        2.5384232936       -5.3356139544
 H        -4.4042090877        1.5390788526       -4.3462299343
 H        -6.0068339408       -1.0695185080       -4.9980202711
 H        -4.3292384195       -1.1287933903       -5.0014228294
 H        -5.2974191900       -1.7006776308       -6.3541670961
 H       -12.1182637791        3.1691703776       -4.1728695473
 H       -10.4824204590        2.7096993399       -3.7043631734
 H       -11.7673647136        1.4307285205       -3.9070357878
 H       -12.7755152440        2.3684033130       -6.8837835466
 H       -12.6707951322        0.8961595566       -5.9209091345
 H       -11.7612405337        0.9383133176       -7.3494914494
 H        -6.6836878523        8.6951109100       -4.5657115267
 H        -5.1908108538        8.6074537990       -5.4931028121
 H        -5.5144309632        7.4158911331       -4.1918062683
 H        -7.1464177444        7.6411934100       -8.1548131298
 H        -6.7104012657        8.9518687929       -6.9696750780
 H        -8.1996984270        8.2104524069       -6.8714433644
 H         0.6680139576        5.3762439300       -8.6743835211
 H        -0.0175123359        4.5215130703      -10.1044610070
 H        -0.5217691396        4.0373873032       -8.4936104466
 H        -1.7538454025        7.9615681744       -9.8520940413
 H        -0.9130353246        7.1434997239      -11.1546432494
 H         0.0005439512        7.3344870149       -9.7130744056
 H        -5.3898856873        4.0590559189      -14.8391375494
 H        -6.3893960684        5.3780379226      -14.1429375240
 H        -7.1644834730        4.0298497923      -14.6713498371
 H        -8.0069424519        4.3576310760      -11.2341336895
 H        -8.4647470943        4.0340880575      -13.0574276459
 H        -7.8871180812        5.6273312086      -12.5496535126
 Na       -5.1638436038        3.4289818342       -8.8412298596
 Na        1.8821452986       -6.9231114451      -11.3324012552
