232

 C        -6.7661581858        1.3575298362      -13.0781066037
 C        -6.3688501449        2.4495021717      -12.1542341088
 O        -6.0756202838        2.2813220999      -11.0158671797
 C        -6.5360243910        4.0299710921      -12.7031779407
 C        -5.2945191192        4.7251744447      -11.9301240521
 O        -5.5046114455        5.2542634735      -10.8459713341
 C        -3.9367433101        4.8443662633      -12.5623434136
 C        -2.9025833819        5.6597716707      -11.6957873868
 C        -2.4618064579        5.0167563098      -10.3300150910
 O        -2.9014188269        3.9621158537       -9.9764016586
 C        -1.3515360683        5.6830267123       -9.4083383058
 C        -2.1298038507        5.9452103595       -7.9449755851
 O        -1.5733443427        5.5996659097       -6.8879416190
 C        -3.6029671710        6.5042665970       -7.9606227270
 C        -4.2738048496        5.9452206477       -6.6253466027
 C        -5.7904067511        5.9139023820       -6.7173800562
 O        -6.3170928746        5.0168240293       -7.3491984089
 C        -6.6365942085        7.1057544534       -6.0697557677
 C        -7.9270302683        6.4008762983       -5.1573366196
 O        -7.9091237162        6.4576106940       -3.9522162390
 C        -8.9496436339        5.6653375313       -6.1448990322
 C        -9.6768059208        4.4831006715       -5.5887154344
 C       -10.3862008795        3.5765790247       -6.5375002292
 O       -10.6103272813        3.7245949321       -7.7128479035
 C       -10.9156747893        2.1833557864       -5.8425378697
 C        -9.5619357240        1.3029340174       -5.7867547314
 O        -9.0326693412        0.9511583028       -4.7588279231
 C        -8.9534848883        0.9082302134       -7.1145418950
 C        -7.7628905079        0.0705698592       -6.9051159081
 C        -6.3703055442        0.8553598567       -7.1259966558
 O        -6.3970651398        1.6807940327       -7.9860982875
 C        -5.1692067792        0.6162844840       -6.1868088991
 C        -3.9189812578        0.9711912606       -7.0540141259
 O        -3.7486248569        2.1212158628       -7.3284971740
 C        -2.9631591247       -0.1701537757       -7.4917145003
 C        -1.4841396722        0.3960606066       -7.8793394531
 C        -0.5739329564       -0.6337434808       -8.5120383892
 O        -0.7849703352       -1.8102282706       -8.5766884470
 C         0.8604654371       -0.0455092901       -9.1128434513
 C         2.0415198431       -1.0202388734       -8.7454367654
 O         2.9404860669       -0.7253892730       -8.0109593773
 C         2.0505600335       -2.3610169126       -9.5567042381
 C         3.4698154643       -2.8556271232       -9.7016735206
 C         3.4987785005       -4.4264851536       -9.9734995107
 O         2.9737593859       -4.8786510693      -10.9591636021
 C         4.3980706677       -5.2984128903       -9.1509986682
 C         4.6603948512       -6.8703430774       -9.4534864836
 O         3.9683615954       -7.5126459387      -10.1638656408
 C         5.7233895717       -7.6333502292       -8.6036730852
 C         5.3478594915       -9.0552313257       -8.0863012319
 C         4.4049017805       -9.1130190907       -6.8463232516
 O         4.0667429823       -8.0284549952       -6.4008346287
 C         3.7675986180      -10.4094154405       -6.3070589358
 C         2.4058893290      -10.5838481000       -7.0018024793
 O         2.2314558980      -11.5410996962       -7.7277263704
 C         1.3457527317       -9.4119245299       -6.7053753038
 C         0.1595180969       -9.2952135378       -7.6584883674
 C         0.5368554577       -9.0058590656       -9.1388096481
 O         1.4026965873       -8.2145013016       -9.4281044177
 C        -0.4743542803       -9.6516450255      -10.2794363608
 C         0.0020845947       -9.0709636515      -11.7537310385
 O         1.0923503598       -9.1256087934      -12.1941463387
 C        -1.2177637746       -8.3212603668      -12.6046827904
 C        -0.9963387661       -7.9236158226      -14.0151214830
 C        -0.0287712513       -6.6540697068      -14.1239617653
 O         0.8696755643       -6.3836501600      -13.3250027330
 C        -0.2192959369       -5.7313153502      -15.2723121599
 C        -1.7657680841       -5.1714078257      -15.0220741184
 O        -2.0452220759       -4.7748044387      -13.9178753614
 C        -2.8668802377       -5.3336769598      -16.0667682485
 C        -4.0850386586       -4.4962889328      -15.6517906192
 C        -4.8774606961       -5.0367182011      -14.4161350321
 O        -4.9527843345       -6.2325378879      -14.2722089392
 C        -5.3628088450       -4.0272280106      -13.2890944516
 C        -6.1385938931       -2.8182783698      -13.9259765411
 O        -5.5128235868       -1.8477139013      -14.3379611009
 C        -7.7656852646       -2.8668794897      -14.1748151933
 C        -8.3392239352       -2.3733261965      -15.5458109586
 C        -9.3461155008       -1.2190544766      -15.3936294199
 O        -9.5065741572       -0.5754018718      -14.3709899430
 C       -10.1686266517       -0.8975944227      -16.5925302057
 C        -9.3622561821       -0.7660059268      -17.9840462955
 O        -8.3712417666       -0.0789086806      -17.9461457171
 C        -9.9929418086       -1.2108006798      -19.3399644259
 C       -11.3063677874       -1.9536904281      -16.6585658389
 C       -10.6894784230        0.5344490319      -16.4438809187
 C        -6.1908788240       -4.7749169416      -12.2311062996
 C        -4.1408150654       -3.3194667855      -12.6337236290
 C         0.6840473998       -4.4256199200      -15.1615815198
 C         0.0754310714       -6.4539537688      -16.6157407763
 C        -0.3901138793      -11.1451344097      -10.3315032798
 C        -1.9179852380       -9.2751399696       -9.9074622575
 C         4.6119871915      -11.6923044943       -6.6550723540
 C         3.6278154452      -10.2896628743       -4.6947967200
 C         5.8712748067       -4.6442740789       -9.3222226514
 C         4.0970055593       -5.1644065461       -7.6698679431
 C         0.4712927965        0.2404770860      -10.6419223898
 C         1.2416902926        1.2959586573       -8.4615265216
 C        -5.0593371187        1.6802642037       -5.0677786097
 C        -5.1354251453       -0.8064702970       -5.6204576411
 C       -11.4395084879        2.5149412935       -4.4048053517
 C       -12.0597306820        1.6028155600       -6.7479247150
 C        -5.8100943282        7.9923971792       -5.1439857837
 C        -7.3336092296        8.0189798853       -7.2111126402
 C        -0.0843298473        4.7832452371       -9.1799292898
 C        -0.9361924816        6.9900947460       -9.9435849300
 C        -6.2088004405        4.1679802748      -14.2171783939
 C        -7.8955608499        4.4946866960      -12.2397453044
 H        -7.6034396205        1.6537831013      -13.7054112911
 H        -6.9002866487        0.3428004416      -12.7308540547
 H        -5.9809660060        1.3522737459      -13.9178834098
 H        -3.9132159237        5.3748135769      -13.4648208795
 H        -3.5565268871        3.8259850422      -12.8335197733
 H        -3.4529627534        6.5784490244      -11.4573678117
 H        -2.0971285815        6.0194086724      -12.4333642785
 H        -4.1321743690        5.9990461509       -8.7628034323
 H        -3.7731111810        7.5124806473       -8.1737742956
 H        -3.7789510642        6.4744983686       -5.7642681920
 H        -3.9523919154        4.8264646184       -6.6709446323
 H        -8.4328119323        5.4294891766       -7.1418908166
 H        -9.4830901075        6.5052608175       -6.4883882957
 H       -10.4479521717        4.8098140692       -4.8765290837
 H        -9.1179920226        3.7243253483       -5.0532694081
 H        -9.0490325749        1.7304049777       -7.8688241824
 H        -9.7470336043        0.2322567633       -7.4154007162
 H        -7.7571283110       -0.7795282177       -7.6281072692
 H        -7.7059277772       -0.3038161226       -5.8715845688
 H        -3.4522914116       -0.6610994708       -8.2905214157
 H        -2.8065577359       -1.0196177420       -6.7845325375
 H        -1.1633421483        0.8703291532       -6.9759365713
 H        -1.4681046216        1.2421097847       -8.4798333786
 H         1.5684129204       -2.1429466431      -10.4837118189
 H         1.4766257664       -3.2555009870       -9.0521862426
 H         4.1173477296       -2.5769963587       -8.8684276223
 H         3.8950194637       -2.5638808171      -10.6293321065
 H         5.9370880085       -7.0195942548       -7.7428843129
 H         6.6785981927       -7.7547496647       -9.1560949916
 H         6.2999283931       -9.5780320795       -7.7570518373
 H         4.8674228038       -9.6073668156       -8.9419695953
 H         1.6881172887       -8.3092446253       -6.6832407197
 H         0.8265853586       -9.4345758570       -5.7270286678
 H        -0.4615517848       -8.5278248494       -7.3188446989
 H        -0.4350614526      -10.3339185813       -7.6789355342
 H        -1.5985983005       -7.4660432641      -12.0279081669
 H        -2.0415879180       -9.0170251611      -12.5443199858
 H        -2.0798016981       -7.8404811286      -14.4904317621
 H        -0.5856696973       -8.6860705066      -14.5485449718
 H        -3.0961506253       -6.4190527324      -16.1420463328
 H        -2.5909729566       -5.0313431115      -17.1071392504
 H        -4.9153620607       -4.5593452879      -16.4048592495
 H        -3.8548855287       -3.5229535148      -15.4620958375
 H        -8.0029721756       -2.1074743666      -13.4594164320
 H        -8.2349959929       -3.7563811523      -13.8687563430
 H        -8.7500929358       -3.1479095000      -16.0949557930
 H        -7.5065337652       -2.0162613772      -16.1623328875
 H       -10.5141502358       -0.2861346796      -19.5694183782
 H       -10.6797081636       -2.0493554587      -19.3311350272
 H        -9.2202523419       -1.3730191352      -20.1339012183
 H       -10.7838809303       -2.8883871469      -16.5619189950
 H       -11.8538619063       -1.7860833768      -17.6065577638
 H       -11.9478821970       -1.7078733684      -15.8292128198
 H        -9.8096065054        1.1746490693      -16.5533538268
 H       -11.2431970612        0.6384687645      -15.4993528917
 H       -11.1697764995        0.7133223572      -17.3241164781
 H        -6.2561122360       -4.2360425473      -11.2857214498
 H        -5.7252722336       -5.7074241886      -11.7912202555
 H        -7.1231035798       -5.0342314230      -12.7216154454
 H        -3.6740110422       -2.6230778058      -13.3428835515
 H        -3.4125548462       -4.0068874009      -12.3279876441
 H        -4.5012886619       -2.6391677788      -11.8140476553
 H         0.5943740005       -3.6927222668      -15.8906903618
 H         1.7263758040       -4.5916226108      -15.2880493611
 H         0.5648957273       -3.8828413832      -14.2363668071
 H        -0.2692244803       -5.8934728231      -17.5096655984
 H        -0.2866615789       -7.5318646991      -16.6815028086
 H         1.1353600144       -6.5415881367      -16.7142917912
 H        -1.2585097619      -11.5736233692      -10.8900573740
 H        -0.5281481211      -11.7116770015       -9.4520797984
 H         0.4153229231      -11.5548228809      -10.8841888488
 H        -2.5992457416       -9.8210142515      -10.5251470020
 H        -2.1833369539       -8.2535873083       -9.9865656930
 H        -2.2023866903       -9.5608925652       -8.9164556280
 H         5.2630318858      -11.7769516026       -5.7834986789
 H         5.2327578979      -11.6174503923       -7.6033134228
 H         3.9281987800      -12.6253273276       -6.7242242750
 H         4.5644933278      -10.5602127200       -4.2366327365
 H         2.8234836760      -10.8396593845       -4.3701785459
 H         3.4348300241       -9.2485610949       -4.5383401056
 H         6.4334719924       -5.1123343057       -8.5677821312
 H         5.8344213958       -3.6666086302       -8.9118914007
 H         6.2605308856       -4.8568102931      -10.3195115643
 H         3.3670977777       -5.8582893950       -7.3960943215
 H         3.9038458678       -4.1604712966       -7.2438317226
 H         5.0033933243       -5.3887644751       -7.0611381122
 H        -0.2721167198       -0.3932539936      -11.0204686641
 H         1.4129022381        0.2779227749      -11.2081902883
 H         0.0024145601        1.2576683409      -10.8573422919
 H         2.1611681434        1.6997111219       -9.0184215217
 H         1.4290110841        1.1139876650       -7.3394572000
 H         0.6638496340        2.1287460161       -8.5835017957
 H        -5.8462244373        1.5965327793       -4.2722699953
 H        -5.1066452626        2.6877104115       -5.4674453232
 H        -4.1001998236        1.5694853397       -4.5711263470
 H        -5.9145533130       -1.0660324681       -4.8514721507
 H        -4.2051107144       -1.0445593568       -5.0740511767
 H        -5.2836508411       -1.6632720101       -6.2868042651
 H       -12.1903876533        3.3600732094       -4.4097034279
 H       -10.6460134228        2.7686658189       -3.7342387513
 H       -11.9625710059        1.6525314672       -3.9929000486
 H       -12.5171065397        2.4667188885       -7.1855236328
 H       -12.8065056142        1.0798206366       -6.1489804128
 H       -11.6602469150        0.8207362296       -7.4232871780
 H        -6.3453561768        8.8252563409       -4.7653413562
 H        -4.9935278276        8.4301148315       -5.7748179874
 H        -5.3649948238        7.3437959138       -4.3393614241
 H        -7.2140647890        7.4746455418       -8.1288641697
 H        -6.8777341389        9.0228951170       -7.0653796702
 H        -8.3697888827        8.1131945495       -6.8932066106
 H         0.5421576865        5.3416341301       -8.5539835202
 H         0.4426633286        4.6414282486      -10.1041160392
 H        -0.2236377368        3.8355149712       -8.6929025685
 H        -1.5327156088        7.8253636934       -9.7012042237
 H        -0.9506591288        6.9443190510      -11.0879815637
 H         0.1256362265        7.0482769324       -9.7581082882
 H        -5.2602157084        3.8138249157      -14.6068022396
 H        -6.3279680346        5.1972730695      -14.4660242290
 H        -7.0195296267        3.7008632006      -14.7533000578
 H        -8.0542232087        4.8760920191      -11.1892310900
 H        -8.5329955811        3.5901913476      -12.5381510383
 H        -8.3215228335        5.2028262577      -12.9224029868
 Na       -5.1945223279        3.4314012373       -8.9177802837
 Na        1.9642361220       -6.9114012293      -11.2427786408
