232

 C        -6.7220234844        1.2689999721      -13.1161942773
 C        -6.2094599296        2.3639321081      -12.0999752341
 O        -5.8303564742        2.1501477942      -10.9582074698
 C        -6.3689242791        3.8905718605      -12.6515202631
 C        -5.3266094952        4.8150825534      -11.8700470930
 O        -5.5984828898        5.1243908993      -10.7326741516
 C        -3.9961631991        5.1697477304      -12.5321525735
 C        -3.0134089956        5.9005179856      -11.5796649135
 C        -2.4821636880        5.0298071684      -10.4428421499
 O        -2.9130445079        3.8995611850      -10.1473183715
 C        -1.4702427635        5.7022920240       -9.4514212794
 C        -2.0732747739        5.7424985987       -7.9707234061
 O        -1.5030662461        5.1470373604       -7.1493226396
 C        -3.4485369767        6.4084849154       -7.7993765723
 C        -4.1888674713        5.8059004222       -6.6189689312
 C        -5.7351301475        5.8678809270       -6.7657826709
 O        -6.3346740665        5.0437967294       -7.4852912268
 C        -6.5819110364        6.9920542944       -6.1752633348
 C        -7.8774070442        6.3405445939       -5.3888222852
 O        -8.0108980668        6.4443852758       -4.2197799481
 C        -9.0413495445        5.7093712561       -6.2883456458
 C        -9.4402947911        4.4865415598       -5.4793022296
 C       -10.3478220131        3.5914696678       -6.4614606561
 O       -10.3751687096        3.9775032141       -7.6256901764
 C       -10.8667537431        2.1949443387       -5.9296989104
 C        -9.5531713610        1.3612141897       -5.8152250668
 O        -9.0388789644        1.1303400658       -4.7418164051
 C        -8.8231039414        0.8570613463       -7.1175993236
 C        -7.5299873270        0.0833181543       -6.8679237113
 C        -6.3119246033        0.9279447578       -7.0650163094
 O        -6.3773666306        1.8175603150       -7.9086008074
 C        -5.0356029609        0.7857068593       -6.1401800942
 C        -3.7656021442        1.1269652780       -7.0311786789
 O        -3.5742662423        2.2438240512       -7.5439134726
 C        -2.7900126093        0.0199152774       -7.5420216769
 C        -1.3813671828        0.4962377871       -7.5446317803
 C        -0.4542528071       -0.3845362679       -8.4266766220
 O        -0.8705726267       -1.5123896401       -8.7521581584
 C         0.8698752201        0.1499073926       -9.0650673036
 C         1.9400826849       -1.0821442726       -8.7699989998
 O         2.6914574171       -0.9617873130       -7.8307716104
 C         2.1382308526       -2.2838033191       -9.7925121877
 C         3.4750500552       -3.0063682942       -9.4292013702
 C         3.5531481787       -4.4829467512       -9.7965344324
 O         2.9336236227       -4.9249376031      -10.7334560510
 C         4.6307709521       -5.2786528253       -9.0229673001
 C         4.8327584896       -6.7738373251       -9.3844816122
 O         4.2966224828       -7.3158202971      -10.3275642024
 C         5.7667038293       -7.6631254274       -8.4178658465
 C         5.0797839353       -9.0403773186       -8.0670862529
 C         4.4106469853       -9.0025170586       -6.7111540251
 O         4.1400379006       -7.9680969902       -6.1648807090
 C         3.7973994416      -10.4008111573       -6.1972205920
 C         2.3581514515      -10.5615690009       -6.9657503820
 O         2.2218616597      -11.5918901506       -7.6335452350
 C         1.4067791330       -9.3889496224       -6.8200956224
 C         0.1454183406       -9.6105404116       -7.7487820357
 C         0.3884889214       -8.9681399028       -9.1599826262
 O         1.1694756707       -8.0676021086       -9.3360481244
 C        -0.6598946013       -9.4629771756      -10.2836070588
 C        -0.2210658809       -8.9629018320      -11.7367568092
 O         0.9560435009       -8.9916890000      -12.0296048118
 C        -1.3476279834       -8.4181380129      -12.5814521196
 C        -0.9540178516       -8.0551958881      -14.0291369852
 C        -0.0128321409       -6.7988583632      -14.1642278224
 O         0.9516122310       -6.5846116697      -13.5012040101
 C        -0.3489788088       -5.8844028926      -15.3775319804
 C        -1.8373649827       -5.3357522744      -15.2093772059
 O        -2.0755854453       -4.7736719844      -14.1619783708
 C        -3.0389687683       -5.3474779041      -16.2268997771
 C        -4.3163462305       -4.5502144631      -15.7207346325
 C        -5.0255574781       -5.0840636710      -14.4213180361
 O        -5.2923661875       -6.2717683142      -14.3431458667
 C        -5.4524530008       -4.0160645272      -13.2758861324
 C        -6.3085861016       -2.7870204104      -13.9723260393
 O        -5.7236897358       -1.8709023933      -14.5224535241
 C        -7.8470475280       -2.9381429451      -14.0471736104
 C        -8.2762909566       -2.3789446418      -15.4257104276
 C        -9.3630745767       -1.2765988033      -15.2635058660
 O        -9.5916682013       -0.7524713248      -14.1707247545
 C       -10.2465201975       -0.8734608931      -16.5773112745
 C        -9.3447666859       -0.6105284417      -17.9144524846
 O        -8.2399073220       -0.1187138795      -17.7638132466
 C        -9.8747768757       -0.8609715822      -19.3890888664
 C       -11.2831320723       -1.9962528621      -16.7927588796
 C       -11.1295117447        0.4058880996      -16.2572580437
 C        -6.2465418103       -4.7629017953      -12.1888382751
 C        -4.1263983949       -3.3472014413      -12.6826717614
 C         0.4771418199       -4.6365785576      -15.3749822582
 C        -0.2641904276       -6.5880002355      -16.7340613146
 C        -0.4519988713      -11.0489743857      -10.4077522982
 C        -2.0683400386       -8.9968478990       -9.8513795803
 C         4.9392015089      -11.6061245117       -6.4474393599
 C         3.6182366100      -10.3045374207       -4.7359533566
 C         6.0431420564       -4.6958606667       -9.2338787923
 C         4.2350629068       -5.2420718877       -7.5706699423
 C         0.7554994491        0.2446036232      -10.5658418666
 C         1.3004829722        1.4204653111       -8.3220377923
 C        -5.2064076352        1.7559931415       -4.9584832776
 C        -5.0660858361       -0.5982093332       -5.4899227557
 C       -11.4964770630        2.4244333512       -4.5613995699
 C       -11.8827836207        1.5820425254       -6.9892777184
 C        -5.8410946006        7.9946516498       -5.1499203868
 C        -7.2812838029        7.8790819776       -7.3570070399
 C        -0.3405822711        4.6533822365       -9.3694602239
 C        -0.8574901061        7.0561245835       -9.7761973396
 C        -6.3768726863        3.8875279388      -14.1487754746
 C        -7.7991019852        4.4319804063      -12.1845596624
 H        -7.8182976676        1.2269657379      -13.2485309194
 H        -6.5427553931        0.2799243526      -12.6341799575
 H        -6.3368726629        1.1398423380      -14.0941776309
 H        -4.1287963493        5.9801073889      -13.3470263553
 H        -3.5006415706        4.3285699102      -12.9944049937
 H        -3.4726860587        6.8529239483      -11.2065474797
 H        -2.2067948926        6.2221021206      -12.1942973331
 H        -4.0678604172        6.1626624067       -8.7032011423
 H        -3.5183410962        7.5499226258       -7.8804340947
 H        -3.8669273174        6.2900310567       -5.7283221123
 H        -3.8323895647        4.8269155588       -6.6091475193
 H        -8.7571633619        5.4453848279       -7.2575371721
 H        -9.8599943659        6.4632915800       -6.4656356451
 H        -9.9844862577        4.8915051934       -4.6347612782
 H        -8.6695582858        3.7493406271       -5.1673216500
 H        -8.7705026932        1.6725405929       -7.7789233889
 H        -9.5129987169        0.1717257329       -7.6580620242
 H        -7.4298729208       -0.6675745734       -7.6385314322
 H        -7.3700443221       -0.3309502852       -5.8964835899
 H        -3.0348336149       -0.2984134833       -8.6199537425
 H        -2.9144093500       -0.8753168995       -6.9707086550
 H        -1.0294628314        0.5717569632       -6.4911248647
 H        -1.4524912341        1.6471762640       -7.6672950199
 H         2.1765275784       -1.7953554299      -10.8210830421
 H         1.3480713266       -2.9666397731       -9.7342047225
 H         3.8411922597       -2.9840687645       -8.3676997176
 H         4.3365907063       -2.5010081915       -9.9914294290
 H         6.1019547535       -7.1816781430       -7.4795168248
 H         6.6138218374       -8.0170068488       -8.9978555017
 H         5.8403139115       -9.7906044107       -8.0292410529
 H         4.2760218201       -9.3060465722       -8.7461833554
 H         1.9149540747       -8.4952645078       -7.0224467132
 H         1.1218281811       -9.1781645492       -5.7678027430
 H        -0.8483818218       -9.2594541211       -7.3261410673
 H         0.1305832205      -10.6176327138       -7.8844616660
 H        -1.5984762283       -7.5230343050      -11.9672649698
 H        -2.2873459325       -9.0258776075      -12.4774414981
 H        -1.8231221725       -7.9188051879      -14.5955378806
 H        -0.3450370110       -8.9124688530      -14.5490161990
 H        -3.2241073774       -6.3890655641      -16.4469245494
 H        -2.8490541893       -4.7963081849      -17.1432252943
 H        -5.1434099429       -4.5839295023      -16.4074081924
 H        -4.0036921146       -3.4673808093      -15.4553984365
 H        -8.3532522654       -2.3189372885      -13.2444915238
 H        -8.0326129214       -4.0592909901      -13.8815025952
 H        -8.4819068395       -3.2722047033      -16.1390309519
 H        -7.4451341635       -1.7708039634      -15.8258123809
 H       -10.1124224385        0.0667624811      -19.9395356736
 H       -10.7542020729       -1.5050965354      -19.3552743547
 H        -9.1638828103       -1.4892597518      -19.8648505718
 H       -10.7346516972       -2.8769756952      -17.1336173214
 H       -11.9490458327       -1.5566987561      -17.4695885344
 H       -11.7979382675       -2.2051309161      -15.8604903461
 H       -10.4954359384        1.2839766409      -16.2316313304
 H       -11.4686044637        0.1878155018      -15.2695411499
 H       -11.8382874686        0.5476514348      -17.1259389398
 H        -6.9317566232       -4.1132232090      -11.6325860404
 H        -5.6285064917       -5.1002635017      -11.4253627155
 H        -6.7152791774       -5.6447016642      -12.5852758302
 H        -3.3817460410       -3.1036933710      -13.4539388698
 H        -3.5762374527       -4.0229959173      -11.9773542994
 H        -4.4490176302       -2.4276729481      -12.2554283008
 H         0.6708381363       -4.2153697366      -16.4064186129
 H         1.5325543462       -4.6790405405      -15.0908896923
 H         0.0620247992       -3.8019212348      -14.8253196374
 H        -0.5647848084       -5.9321114905      -17.5454445604
 H        -0.9992919863       -7.3361256313      -16.6991003352
 H         0.6888959906       -7.1077855213      -17.0467540888
 H        -1.2323707083      -11.5817803543      -10.8939604115
 H        -0.4628183457      -11.6851885267       -9.5072078458
 H         0.4770915395      -11.3554295733      -10.9433231335
 H        -2.8206576024       -9.2758853970      -10.6323853718
 H        -2.1671972776       -7.8805775971       -9.8104243167
 H        -2.5738974645       -9.4103427436       -8.9551106391
 H         5.9870582682      -11.2189233205       -6.2811231927
 H         4.8869034298      -11.9628091950       -7.4532813343
 H         4.7520563379      -12.3859853565       -5.7557264326
 H         4.4901604694       -9.8321331162       -4.3077828013
 H         3.3964943052      -11.3008490326       -4.2716963215
 H         2.7555819767       -9.6520068958       -4.5685220069
 H         6.7155547626       -5.5839986315       -9.3431175844
 H         6.4544642248       -4.1212395118       -8.3902912430
 H         5.9945747912       -4.3146841847      -10.2306309392
 H         3.2504175439       -5.7146348321       -7.4602024954
 H         4.2562037482       -4.2830135895       -7.1008580027
 H         4.9428396661       -5.7483678553       -6.8945554725
 H         0.3875819639       -0.6773335221      -11.0753336678
 H         1.6589662106        0.6595101160      -10.9420384219
 H         0.0211011108        0.9103954852      -10.8141843860
 H         2.2889972458        1.6833045385       -8.6027707364
 H         1.1314269681        1.4306840412       -7.3120450369
 H         0.7447175247        2.2894854418       -8.8300407137
 H        -6.1158913330        1.6914970198       -4.4061393277
 H        -5.1848529968        2.7882944230       -5.3595879979
 H        -4.3647488310        1.6394525915       -4.2326018365
 H        -5.8921627498       -0.7997626335       -4.8764787676
 H        -4.2092438801       -0.9322899696       -4.9452402782
 H        -5.1347243953       -1.3968722928       -6.2053289546
 H       -12.2275198635        3.1534161644       -4.6029603313
 H       -10.7120256710        2.6960342245       -3.8556726522
 H       -11.9629128536        1.5032184365       -4.2135077641
 H       -12.5548691582        2.3681514785       -7.3521113609
 H       -12.4828864111        0.8973642802       -6.3722218782
 H       -11.3605002887        0.9888865299       -7.7237398011
 H        -6.6804638373        8.6942417036       -4.9182899608
 H        -5.1104276036        8.6478676078       -5.5934167096
 H        -5.4564815140        7.5180225622       -4.2754084169
 H        -7.8969132054        7.1728865356       -7.9337930828
 H        -6.4238203349        8.3570130197       -7.8072612321
 H        -7.8029618222        8.7070160272       -6.8557290600
 H         0.2021048840        4.7568932131       -8.3833203247
 H         0.3982269151        4.9146068812      -10.0876192347
 H        -0.6372840877        3.6308532048       -9.5247595283
 H        -1.6859394003        7.6804277028      -10.1342395399
 H        -0.1105244734        6.9972444149      -10.5075943191
 H        -0.3893619063        7.4225559716       -8.8813564980
 H        -5.5516434630        3.3527325379      -14.6168365144
 H        -6.4169312739        4.8587643391      -14.6664336499
 H        -7.3018585005        3.3390736078      -14.3143183567
 H        -7.5805321014        5.2649301551      -11.6265718331
 H        -8.4515765974        3.7670847018      -11.7186308624
 H        -8.3458709781        4.8008585206      -13.0448432111
 Na       -5.1827416176        3.5647445026       -9.1186932630
 Na        2.1328959983       -7.0828667455      -11.3549068322
