232

 C        -6.6627199417        1.1961397771      -12.8313879987
 C        -6.2023776381        2.3021993678      -12.0400666733
 O        -5.7229286169        2.0743045443      -10.9833718308
 C        -6.3256401111        3.8193947823      -12.6488261307
 C        -5.3204745790        4.7165505045      -11.8288254435
 O        -5.6027425078        5.1693620453      -10.7220792715
 C        -4.0645460153        5.2209831031      -12.5231023013
 C        -3.0633409788        6.0500683449      -11.5625489256
 C        -2.6782288043        5.1683387464      -10.3997767284
 O        -2.9692840555        3.9913156706      -10.3990900644
 C        -1.4496221772        5.6213679300       -9.4156468301
 C        -2.0708800188        5.5537859116       -7.9879470990
 O        -1.5633047031        4.9920301183       -6.9948936220
 C        -3.4143215884        6.2735139938       -7.7860661796
 C        -4.2404448797        5.7223163549       -6.6406890104
 C        -5.7134059123        5.8806114274       -6.8746941108
 O        -6.1832598612        5.0729121711       -7.6341952057
 C        -6.6916952094        7.0338618840       -6.2740485439
 C        -7.8493924316        6.4333790775       -5.4967602144
 O        -7.8666952432        6.4730549930       -4.2864019237
 C        -8.9312786773        5.6430130605       -6.1829239669
 C        -9.4560397890        4.4340350337       -5.4908354166
 C       -10.2782687089        3.6175875351       -6.5328898054
 O       -10.3960196805        3.9952810793       -7.6783747229
 C       -10.8033117593        2.2448338397       -6.0127692743
 C        -9.4577006594        1.3456717239       -5.8176185779
 O        -9.0377663745        1.2145744656       -4.6814735282
 C        -8.8064488639        0.8110705750       -7.0836788735
 C        -7.5167166891        0.0202809233       -6.7753049331
 C        -6.3179043979        1.0589462704       -7.0661019307
 O        -6.3550257105        1.9461916981       -7.8608672800
 C        -4.9651900952        0.8943783235       -6.1967708618
 C        -3.7758890661        1.2543485848       -7.0836800645
 O        -3.5635948837        2.2938711457       -7.6151921812
 C        -2.7614576071        0.0604842290       -7.4515799453
 C        -1.2311018131        0.5005239351       -7.4827726030
 C        -0.4999921495       -0.3613907703       -8.4956775219
 O        -0.9984002278       -1.4256379661       -8.8235751873
 C         0.9164272088        0.1186006267       -9.0751069031
 C         2.0033792036       -1.0735510428       -8.7005108895
 O         2.5915669682       -1.0813150368       -7.6722173441
 C         2.2432902586       -2.1586771405       -9.7916745118
 C         3.5259351712       -2.9355446965       -9.3492855126
 C         3.5817150600       -4.5121690526       -9.7163443677
 O         2.8228791259       -4.9582583260      -10.5598593762
 C         4.6810290105       -5.3589461012       -8.9321668437
 C         4.7925108906       -6.8273914430       -9.3849751933
 O         4.3841543493       -7.2926118356      -10.4135094585
 C         5.7837181781       -7.6157019167       -8.5424376877
 C         5.0507109797       -8.9402913858       -8.2312670043
 C         4.3825120946       -8.9431520125       -6.7792096887
 O         4.2503951586       -7.9922845552       -6.0451069179
 C         3.8164231004      -10.3515244255       -6.1476108400
 C         2.5182532793      -10.5983180406       -6.9352654468
 O         2.2444469369      -11.5629826732       -7.5767559714
 C         1.4284535845       -9.4378044457       -6.9416855171
 C         0.1819770654       -9.7094071628       -7.8227925541
 C         0.2875515346       -8.9510249343       -9.0909643295
 O         1.0559314466       -8.0247978647       -9.2635358098
 C        -0.6778241669       -9.4357248302      -10.2051975237
 C        -0.3455353271       -8.8071438239      -11.6702427310
 O         0.7945504258       -8.9628996812      -12.0034412343
 C        -1.3915440294       -8.3550308588      -12.5944880993
 C        -0.8003626828       -8.1821343135      -14.0731486882
 C         0.0344224178       -6.8982598771      -14.2944492843
 O         0.9328743058       -6.5675657218      -13.5375802832
 C        -0.5454292961       -5.8769053660      -15.5027654857
 C        -1.9903660753       -5.3543913962      -15.1119877028
 O        -2.0992655599       -4.7511714890      -14.0646489973
 C        -3.0924535120       -5.4239132945      -16.1910137644
 C        -4.3145531886       -4.5395747222      -15.7863601048
 C        -5.0789932031       -5.0198961865      -14.5006027063
 O        -5.3857413685       -6.1778475854      -14.3396672325
 C        -5.5134841039       -3.9432500676      -13.2607964449
 C        -6.2822718819       -2.8868730453      -14.0153451842
 O        -5.7143040594       -1.9532125169      -14.5524296241
 C        -7.8255282835       -2.9864759380      -14.2295107277
 C        -8.4034571637       -2.2624080500      -15.5116710714
 C        -9.4123893537       -1.2243420473      -15.2932673824
 O        -9.6677096411       -0.8039533031      -14.1806697867
 C       -10.3390733063       -0.8907432057      -16.5362079771
 C        -9.3668915601       -0.5855535556      -17.7593642212
 O        -8.2233712189       -0.2131208656      -17.5897184264
 C        -9.7616309396       -0.6924542042      -19.2282609379
 C       -11.2217936872       -2.1367389796      -16.7974669612
 C       -11.1867460758        0.3164754653      -16.1575693351
 C        -6.2736209944       -4.7735800233      -12.1998630026
 C        -4.2476299601       -3.3486248378      -12.7209063658
 C         0.4805236853       -4.7008141979      -15.5306512566
 C        -0.4646915727       -6.7482366860      -16.8767473059
 C        -0.6067831319      -10.9440262837      -10.4557911901
 C        -2.0354203979       -9.0853621972       -9.7020554408
 C         4.7999269589      -11.4528473054       -6.4229455515
 C         3.5351254577      -10.3540173362       -4.5505799864
 C         6.1683968203       -4.6070731650       -9.1230218675
 C         4.3076258072       -5.2601945752       -7.3558959142
 C         0.7683924450        0.3985532686      -10.5748760321
 C         1.4835512363        1.3231509918       -8.3624045736
 C        -5.2815900346        1.8733972204       -4.9807495178
 C        -4.8544586997       -0.5195522266       -5.5595701921
 C       -11.4875783275        2.2601646148       -4.6250261911
 C       -11.8468631592        1.6903055914       -7.0929821034
 C        -6.0404600214        7.9316773504       -5.1742101313
 C        -7.0395612770        7.8842435489       -7.4883739608
 C        -0.2704377352        4.5558721992       -9.5856438839
 C        -1.0149879731        7.0561279675       -9.7565015365
 C        -6.3100039158        3.9940441857      -14.1910020435
 C        -7.7902573353        4.3368322060      -12.1292749692
 H        -7.6804065735        1.1688132603      -13.0781254960
 H        -6.4548809632        0.2495892751      -12.4015734127
 H        -6.1224179419        1.2418595309      -13.7946047600
 H        -4.4704762517        5.9730846281      -13.2664260428
 H        -3.4865124673        4.4792774107      -13.0861024940
 H        -3.5461325960        6.9474146435      -11.2571741767
 H        -2.1795207739        6.3373165112      -12.0694330078
 H        -4.0918919537        6.3628306196       -8.7026736463
 H        -3.2271336002        7.3149026798       -7.6138989398
 H        -3.8952204244        6.1074366410       -5.7153718696
 H        -3.9856767829        4.6695401450       -6.6154046991
 H        -8.6325758484        5.3259273133       -7.2278824570
 H        -9.7470003645        6.3566319863       -6.3684922409
 H       -10.0659590498        4.7136381766       -4.6561283862
 H        -8.7273896518        3.5599063155       -5.2296416314
 H        -8.8512178580        1.5513862944       -7.9225345094
 H        -9.5855529088        0.0624595050       -7.4430110576
 H        -7.3629956920       -0.7635079417       -7.5451268597
 H        -7.3552380336       -0.3119688989       -5.8014008927
 H        -2.9215110219       -0.3717304286       -8.4924653204
 H        -2.9496949997       -0.7523309691       -6.8066394628
 H        -0.6313144687        0.4103813935       -6.5047172402
 H        -1.2901598611        1.5895934414       -7.4749079132
 H         2.3754791945       -1.6966856776      -10.7185960067
 H         1.3399869253       -2.7983102050       -9.7494712907
 H         3.6912824343       -3.0752348853       -8.2210220966
 H         4.3841558007       -2.2989326174       -9.6764829974
 H         6.0730015507       -7.1435258330       -7.6004345755
 H         6.6432274013       -7.9788908831       -9.1933206215
 H         5.7959517001       -9.7298580215       -8.1691128970
 H         4.2600104020       -9.1818820609       -8.9115022542
 H         1.8660239326       -8.4628999202       -7.0519583155
 H         1.0321058352       -9.3330801497       -5.9382746546
 H        -0.6978888308       -9.3643294465       -7.2989594297
 H         0.1591817966      -10.8548097254       -7.9689901655
 H        -2.0094581044       -7.6027672203      -12.1007394376
 H        -2.0532028341       -9.2244247741      -12.5852159940
 H        -1.7176515079       -8.1791815191      -14.8694989812
 H        -0.1962046382       -9.0770750018      -14.2655957761
 H        -3.4374886467       -6.4990221741      -16.3114578967
 H        -2.7932317052       -4.9857973425      -17.1859206735
 H        -5.1466688422       -4.6775488441      -16.5198391488
 H        -4.0933014121       -3.5351533279      -15.6021436381
 H        -8.3040615277       -2.3934752123      -13.3895442761
 H        -8.0857767345       -4.0678262609      -14.1252335643
 H        -8.9124301935       -3.1159520296      -16.1133491596
 H        -7.6189301501       -1.7458363999      -16.1785393893
 H        -9.8310698249        0.3614759623      -19.5761764139
 H       -10.6889952643       -1.1550346737      -19.4536727453
 H        -9.0050235706       -1.2975546891      -19.7235762212
 H       -10.6135754915       -2.7594032169      -17.4731513606
 H       -12.1237324553       -1.7146002614      -17.2366636548
 H       -11.4053778144       -2.7160034144      -15.9089953378
 H       -10.4491440279        1.1674060423      -16.0090656576
 H       -11.5801520638        0.0714846955      -15.1570517661
 H       -11.7982448662        0.5301457258      -16.9874794783
 H        -7.1139016921       -4.1705150483      -11.7694034650
 H        -5.6568044082       -5.0303473891      -11.3477661802
 H        -6.5736741948       -5.7273564701      -12.5497261612
 H        -3.5677260039       -2.9645833330      -13.5010312635
 H        -3.6943975290       -4.1172335771      -12.2696845230
 H        -4.5174134495       -2.5035052296      -12.0265507124
 H         0.6802861011       -4.2482717458      -16.5156207029
 H         1.5276522972       -4.9440646872      -15.3107745596
 H         0.2556525351       -3.8219452263      -14.9016344208
 H        -0.5737324223       -6.0907360812      -17.7238732054
 H        -1.3011782009       -7.4119350109      -16.9280681205
 H         0.4082317498       -7.3339645733      -17.0633040376
 H        -1.2576272026      -11.2364804312      -11.2960153366
 H        -0.9731005666      -11.6441154097       -9.7603025665
 H         0.3822872626      -11.3211474975      -10.6915089000
 H        -2.9127097121       -9.2671553829      -10.3681112547
 H        -2.0663409846       -8.0046098133       -9.5398141719
 H        -2.3949112016       -9.5712233414       -8.7654069309
 H         5.7636849466      -11.1443370291       -6.6607384670
 H         4.4671059297      -12.0667582505       -7.2013225349
 H         4.8815650393      -11.9816011680       -5.5084993466
 H         4.3882497451       -9.8082913102       -4.0332964397
 H         3.3889986533      -11.3602386447       -4.1582577753
 H         2.5870308153       -9.7453611952       -4.4037121962
 H         6.9698022731       -5.3476964304       -9.2073931470
 H         6.3714650376       -3.9833954759       -8.2341528949
 H         6.0866516316       -4.1163125603      -10.0961938162
 H         3.3341275652       -5.4350481060       -7.1077803983
 H         4.6171728261       -4.2531014763       -7.0071875102
 H         5.0036004251       -5.8692772667       -6.6808487893
 H         0.4439835816       -0.4047654314      -11.2120272172
 H         1.5976482832        0.9851087144      -10.9943600261
 H        -0.0771156812        1.0947697489      -10.5835163470
 H         2.5512965547        1.5409792075       -8.7155098160
 H         1.4290036201        1.2798289786       -7.2788412835
 H         0.9596137487        2.1561604590       -8.7088756261
 H        -6.3105896376        1.7678706379       -4.6356628067
 H        -5.2585484312        2.8903581284       -5.3522399323
 H        -4.6460239276        1.7477388014       -4.1118845055
 H        -5.6242056038       -0.7703913184       -4.8449859351
 H        -3.9237835420       -0.7400558122       -5.0629299811
 H        -4.8577347220       -1.3283930647       -6.2016075219
 H       -12.3581635411        2.9176448225       -4.5951933566
 H       -10.7505748488        2.5564125139       -3.9093609776
 H       -11.8143957268        1.2315110230       -4.3485794592
 H       -12.7041888717        2.3100049271       -7.1494696884
 H       -12.1399719409        0.7500327989       -6.6002539070
 H       -11.3731328784        1.4995918726       -8.0529770389
 H        -6.7546504833        8.5779428186       -4.7910207911
 H        -5.2393731311        8.5655853029       -5.5468440976
 H        -5.6604728676        7.2552424850       -4.4224865818
 H        -7.9292952141        7.5084418537       -7.8944733737
 H        -6.1503576770        7.9185234733       -8.1149410138
 H        -7.1067988502        8.8419286139       -7.1039893356
 H         0.4998976084        4.5702845178       -8.7438781766
 H         0.3151232307        4.7147896951      -10.5076038735
 H        -0.7681745087        3.5298765638       -9.6203004760
 H        -1.8428743686        7.5109567766      -10.2401939329
 H        -0.0730844457        7.1067456597      -10.3925231070
 H        -0.8450231317        7.5933008942       -8.8425056645
 H        -5.2996666716        3.6522133973      -14.5183295975
 H        -6.2925342009        5.0585253748      -14.4550868769
 H        -7.1307827620        3.4974315092      -14.7282718234
 H        -7.5796860607        5.2237885056      -11.5557574286
 H        -8.3093693443        3.5541543788      -11.5181176710
 H        -8.4463466485        4.5801420494      -12.9092586313
 Na       -5.1338554608        3.5539229486       -9.0800221401
 Na        2.2337050250       -7.1850798631      -11.4659287113
