232

 C        -6.6590536009        1.0349578957      -12.8307218754
 C        -6.0932472384        2.3211762046      -12.0117499583
 O        -5.5989808538        2.1984077078      -10.9101933690
 C        -6.3017397780        3.8476696481      -12.4646730572
 C        -5.3682832701        4.8388611568      -11.8673988243
 O        -5.5654645665        5.1816168687      -10.6820993635
 C        -4.1180760288        5.3577939653      -12.6185125378
 C        -3.1775985572        6.1308606387      -11.6179057289
 C        -2.5715972050        5.0859677749      -10.5855464691
 O        -3.1083931801        4.0168890420      -10.4898706721
 C        -1.5733605874        5.5085661819       -9.4857119327
 C        -2.1234650886        5.3767126314       -7.9335532799
 O        -1.5465414622        4.8132343064       -6.9857136403
 C        -3.3693260897        6.2204738711       -7.7256976568
 C        -4.2684244258        5.7378219707       -6.4932271085
 C        -5.7305014410        5.8671804006       -6.9279100236
 O        -6.2741115827        5.1947330085       -7.7848165687
 C        -6.5612578894        7.0555304069       -6.3543360814
 C        -7.8145505107        6.3512921064       -5.4923592328
 O        -7.7724145245        6.4642839879       -4.2595916852
 C        -8.8940922460        5.6567664494       -6.2976832455
 C        -9.4700260018        4.4631851855       -5.5880690517
 C       -10.2296361666        3.5496152956       -6.5363112412
 O       -10.4796850170        3.9061678354       -7.6526380837
 C       -10.7627768171        2.1783793083       -6.0201695357
 C        -9.4988656078        1.2927433072       -5.8623751197
 O        -8.9635410252        1.2967098303       -4.7764949464
 C        -8.8748728647        0.6548530376       -7.0983439360
 C        -7.4509972916        0.1293081629       -6.7207788132
 C        -6.2394253126        1.1155472080       -7.0570733832
 O        -6.4768303853        2.0128376386       -7.8390558057
 C        -4.9601489599        0.9352529672       -6.2483133536
 C        -3.6585431814        1.2944872335       -7.0610992715
 O        -3.6499646450        2.3712330617       -7.6033664563
 C        -2.6663037073        0.2055334741       -7.3446729661
 C        -1.1242490258        0.5443373537       -7.4975344393
 C        -0.4844363229       -0.4111710727       -8.4453856721
 O        -1.0036933542       -1.3393262862       -9.0300869313
 C         0.9591085122        0.0982036827       -9.0020390386
 C         2.0114925294       -1.0810638768       -8.7310565817
 O         2.3608541861       -1.1262867797       -7.5690686294
 C         2.4165798519       -2.1760597755       -9.7756868404
 C         3.5479214422       -2.9663896113       -9.2632561447
 C         3.5884038942       -4.4547099872       -9.5916302298
 O         2.7494584590       -4.9982316853      -10.2913911526
 C         4.7408687027       -5.1854669709       -8.8869650847
 C         4.9104011703       -6.7586321593       -9.4210979005
 O         4.3527105277       -7.1540527797      -10.4368364062
 C         5.7557692109       -7.7888559611       -8.6342004805
 C         4.9841410998       -9.0562098961       -8.0689767768
 C         4.4042030176       -8.9953910327       -6.6034777770
 O         4.4416456209       -7.8976718173       -6.0494517606
 C         3.8638739416      -10.3277220377       -6.1573417335
 C         2.5270087401      -10.6085512197       -6.9154328930
 O         2.3493307903      -11.6359978076       -7.5565085947
 C         1.4013176821       -9.4275784579       -6.8048173060
 C         0.3095841690       -9.7795418034       -7.7835444750
 C         0.3248838433       -8.9952302497       -9.1171973047
 O         0.9823056167       -7.9644498755       -9.3018109907
 C        -0.7811284229       -9.3719798405      -10.2317244352
 C        -0.3847278423       -8.7692882424      -11.6060219533
 O         0.7913295789       -8.8805767049      -11.9696580607
 C        -1.4653447240       -8.3282253247      -12.7481765094
 C        -0.7387943440       -8.2586613792      -14.0745466605
 C        -0.1692536485       -6.8909099398      -14.3232337964
 O         0.8414718508       -6.5091959439      -13.7166059554
 C        -0.6054734698       -6.0116357300      -15.5068700896
 C        -1.9943231921       -5.3187908612      -15.0935761394
 O        -2.0945156048       -4.8380951915      -13.9913051047
 C        -3.1588516957       -5.4845395703      -16.0037767867
 C        -4.3082385789       -4.4875914212      -15.7327258530
 C        -5.0736992762       -5.0308138000      -14.4857975610
 O        -5.4495687413       -6.1642017509      -14.4075725485
 C        -5.5007186311       -3.9822175938      -13.3918117107
 C        -6.3212003529       -2.9290438311      -14.2189793924
 O        -5.6676843147       -1.9773158574      -14.5923130436
 C        -7.9068938775       -3.0708955459      -14.3367673705
 C        -8.3261854581       -2.3533182243      -15.5832363006
 C        -9.5093991758       -1.3513135588      -15.2463075623
 O        -9.7266348837       -0.7886855165      -14.2091236731
 C       -10.3665312826       -0.9022289232      -16.5411922380
 C        -9.3183261010       -0.4770813783      -17.6121681999
 O        -8.1719222444       -0.2681640506      -17.2407998748
 C        -9.8396540607       -0.5344659488      -19.0526162918
 C       -11.1679060742       -2.2800789328      -16.8918903844
 C       -11.2673877157        0.3453662668      -16.1352425164
 C        -6.3541350730       -4.6924226384      -12.3212103407
 C        -4.3164681254       -3.2815166368      -12.7069909424
 C         0.4396137839       -4.8878575862      -15.7515203727
 C        -0.6693387136       -6.8137153138      -16.7780882298
 C        -0.7777718142      -10.8973424826      -10.5429759072
 C        -2.2468346505       -9.0733572894       -9.6279394194
 C         4.7832989526      -11.5219621236       -6.4567746646
 C         3.4465141407      -10.1661723726       -4.6411779442
 C         6.0700787552       -4.5623548802       -9.0394012333
 C         4.3528989590       -5.2033494939       -7.3448278999
 C         0.7780579005        0.4491822933      -10.5068421170
 C         1.6538436712        1.3138683641       -8.3108897685
 C        -5.1939554765        2.0381739238       -5.1227013381
 C        -4.7434354605       -0.4418707690       -5.5739709523
 C       -11.5438833113        2.1962916444       -4.7226613562
 C       -11.6981179422        1.6938893397       -7.1607133069
 C        -5.8425506904        7.9169992948       -5.2904026910
 C        -6.8798455903        7.9434197265       -7.6997317531
 C        -0.3358878860        4.6105502885       -9.7383695714
 C        -1.0976910330        7.0534310013       -9.6542808372
 C        -6.1408781358        3.9654381922      -14.0047595786
 C        -7.8436382490        4.1450524141      -12.0696783097
 H        -7.6948814082        1.2491616257      -13.0157601461
 H        -6.6559126735        0.0750916275      -12.3947058792
 H        -6.1904301686        0.9436607914      -13.8179774347
 H        -4.3093606641        5.8347864530      -13.5328402753
 H        -3.4774025405        4.4546541132      -12.7475071613
 H        -3.7842779607        6.7116505399      -10.9708600648
 H        -2.4665635248        6.8219043204      -12.1117898690
 H        -3.9860799252        6.3407275434       -8.5992533157
 H        -3.0651742450        7.2196061270       -7.5854695284
 H        -4.0383989019        6.3263621092       -5.5692550782
 H        -3.8805875010        4.6990807992       -6.2220059133
 H        -8.3773082662        5.2495096949       -7.2725045891
 H        -9.6002570116        6.4162791826       -6.6405033983
 H       -10.2185710502        4.7699344178       -4.7933772154
 H        -8.7014369297        3.8160951843       -5.1979279945
 H        -8.9766564877        1.4899465347       -7.9113345177
 H        -9.4849497678       -0.1367512291       -7.5817507092
 H        -7.1758686967       -0.7549180275       -7.3112734354
 H        -7.2586936766       -0.0141650637       -5.6396475316
 H        -2.9428271955       -0.2917347840       -8.2375182666
 H        -2.8503526730       -0.5545696699       -6.5390454720
 H        -0.5365855741        0.6550113629       -6.5826208840
 H        -1.1161088342        1.5567119690       -7.7683213966
 H         2.6798554819       -1.7348783612      -10.7077987842
 H         1.4351795802       -2.7601868257       -9.7852528275
 H         3.7557561131       -3.0270411589       -8.1935256138
 H         4.3926132698       -2.4363283851       -9.6613161710
 H         6.1786385902       -7.2712013844       -7.7607510246
 H         6.4687587298       -8.3108598188       -9.3082434575
 H         5.6473414471       -9.9465034308       -8.1877433802
 H         4.0195273244       -9.2261197957       -8.5761901917
 H         2.0308736687       -8.4606373720       -7.1018209238
 H         1.0016969273       -9.0927776270       -5.8362079068
 H        -0.6542426933       -9.5169625042       -7.3910805527
 H         0.4297943373      -10.9567979793       -7.8296667226
 H        -1.9406505974       -7.3906142753      -12.4604076952
 H        -2.2840364380       -9.0119331708      -12.7621499786
 H        -1.4907531596       -8.5258265806      -14.8903374833
 H         0.0671277512       -8.9619058863      -14.0807546230
 H        -3.6876694774       -6.4856597653      -15.8565989848
 H        -2.9466486435       -5.3190976377      -17.0928435899
 H        -5.0559426037       -4.6267639870      -16.5173571218
 H        -4.0796242871       -3.4934996454      -15.5338365580
 H        -8.4161743898       -2.5039347884      -13.5489757477
 H        -8.1027350951       -4.1118667539      -14.2497296463
 H        -8.6516021423       -3.0965026774      -16.2525515412
 H        -7.4722394022       -1.7467094183      -16.0525400014
 H        -9.8916440562        0.4775305210      -19.3691384273
 H       -10.8792284066       -0.8792130252      -19.1238923508
 H        -9.2531469344       -1.2322110485      -19.6817116642
 H       -10.5895747028       -2.8546165068      -17.5972594247
 H       -12.2049085656       -1.9635632283      -17.1961549159
 H       -11.1445819788       -2.8632033820      -15.9594125645
 H       -10.6165740343        1.1770797908      -15.8306801881
 H       -11.8362798112        0.0443678008      -15.2450239583
 H       -11.7638566632        0.5352816483      -17.0455389049
 H        -7.1339843152       -4.0009901521      -12.0490357753
 H        -5.7390927571       -4.9303304297      -11.3672434156
 H        -6.7313841444       -5.7083285312      -12.5383423435
 H        -3.7989796878       -2.5475276841      -13.3014258436
 H        -3.5817304919       -4.0376317118      -12.5150187697
 H        -4.7324509617       -2.8154982744      -11.7785516894
 H         0.2416099684       -4.2901065556      -16.5975463724
 H         1.4996498302       -5.0343719021      -15.8497821619
 H         0.3413429489       -4.1721462470      -14.9208239158
 H        -0.7519008519       -6.0327794901      -17.5081544322
 H        -1.5224755258       -7.5135775907      -16.9445284006
 H         0.1853251876       -7.3323901117      -17.0234339927
 H        -1.0900040058      -11.2829036517      -11.5265599212
 H        -1.3908729283      -11.5230259436       -9.9321827162
 H         0.1517822660      -11.3276599552      -10.3358835163
 H        -3.1675046931       -9.2944672544      -10.1104545971
 H        -2.3897280816       -8.0704956554       -9.2493514735
 H        -2.2987096891       -9.6918839764       -8.7478472345
 H         5.7168865769      -11.3094341431       -6.8891868323
 H         4.3270043133      -12.1942727415       -7.1555108909
 H         5.0560722255      -11.9758238151       -5.5196542652
 H         4.3614375179       -9.8358522073       -4.0853824355
 H         3.1362549392      -11.1506944675       -4.2653052917
 H         2.6264231090       -9.4256188629       -4.4825205343
 H         6.8299756207       -5.2891970504       -8.8519955009
 H         6.1315052029       -3.8331979370       -8.2424581550
 H         6.1910694285       -4.1719390330      -10.0763486383
 H         3.2409872520       -5.3790577957       -7.1909410871
 H         4.6075861831       -4.2560703694       -6.8308066141
 H         4.9261197812       -5.9091232411       -6.7850165792
 H         0.3942374732       -0.3299016928      -11.1430209810
 H         1.6846812229        0.8915911205      -10.9780398713
 H        -0.0260047977        1.3095548083      -10.5141639041
 H         2.6078371747        1.5746546349       -8.8091251470
 H         1.8617141399        1.1186213932       -7.1863882244
 H         0.9638285181        2.1432071073       -8.3968442881
 H        -6.2203871605        1.9949190781       -4.7050975435
 H        -5.1631966119        3.0005647902       -5.5993932428
 H        -4.5323382333        1.9357075138       -4.2962818720
 H        -5.4206088540       -0.8470472065       -4.8214506661
 H        -3.7932879357       -0.4760203600       -5.0895827056
 H        -4.5435623558       -1.2932009359       -6.2366253325
 H       -12.4942844878        2.8365702215       -4.8125433322
 H       -10.8717378809        2.6026916491       -3.9548614999
 H       -11.8165677435        1.1895973235       -4.4236439230
 H       -12.6780477786        2.1458929425       -7.0089733769
 H       -11.8121570049        0.6316903299       -7.2040015090
 H       -11.2720722253        2.1563458138       -8.0633554281
 H        -6.4671915530        8.6614560882       -4.8699966608
 H        -4.9995449071        8.4080318142       -5.7465662408
 H        -5.4626140851        7.2435611484       -4.5319150505
 H        -7.8313258949        7.5609136222       -7.8829280988
 H        -6.1568203241        7.8127185910       -8.4525431680
 H        -6.9266428530        8.9477136494       -7.3785010335
 H         0.5382867083        4.8140738709       -9.1287825231
 H         0.0551714785        4.5990988043      -10.8355428629
 H        -0.7397423086        3.5816942624       -9.5085037334
 H        -1.9461713491        7.7038509972       -9.9081622873
 H        -0.2475741931        7.0920848555      -10.3869522097
 H        -0.7465132534        7.4029721417       -8.6508428247
 H        -5.0608793279        3.8488634300      -14.0838436441
 H        -6.2131832306        5.0295844885      -14.2238134084
 H        -6.7073866885        3.4135063660      -14.7610605629
 H        -7.9909754864        5.1307372957      -11.5069227080
 H        -8.1872236552        3.2691851965      -11.4741507188
 H        -8.4557446653        4.0997450266      -12.9963358778
 Na       -5.0440010790        3.4798654704       -9.0153082228
 Na        2.3055208665       -7.2282727131      -11.5177065785
