232

 C       -21.3604734614       -8.0087850746       -4.0573323236
 C       -20.7246614155       -6.6229142078       -3.8033562249
 O       -19.8789890104       -6.4454954896       -2.9603999309
 C       -21.3116117185       -5.4671748102       -4.7578485650
 C       -20.4321258997       -4.2073475087       -4.6439495751
 O       -20.0652662488       -3.8044344596       -3.5283838742
 C       -20.1251411488       -3.3256072332       -5.8339523509
 C       -18.6987830289       -3.6421630885       -6.4745106898
 C       -17.6871287653       -3.9992783745       -5.3315684292
 O       -17.9194834465       -4.9858069167       -4.6451242755
 C       -16.3609484317       -3.2967358376       -5.1106824754
 C       -16.0458658869       -3.1022906645       -3.5752372490
 O       -16.9344891448       -2.5371215938       -2.9675967181
 C       -14.7970540031       -3.6672442638       -2.8617299571
 C       -14.8251118803       -3.2059739374       -1.3623621385
 C       -15.6841446762       -4.1481038652       -0.5100368596
 O       -16.6869819383       -4.7575812948       -0.8388255352
 C       -15.1800133258       -4.3130626642        0.9458409590
 C       -13.6911133798       -4.9584436319        0.8469329525
 O       -12.7512968607       -4.3949667836        1.3123969605
 C       -13.4855598002       -6.3241121732        0.0810320698
 C       -12.2140123935       -6.2543426300       -0.8198162669
 C       -12.4644898137       -6.6987591233       -2.2277860300
 O       -13.2640892402       -6.1311103152       -2.9496022449
 C       -11.5809748620       -7.9207199066       -2.8874478069
 C       -10.0069066347       -7.4943165694       -3.0602294470
 O        -9.2838181359       -7.4419456800       -2.1155779157
 C        -9.4170466247       -7.2348443995       -4.4431578643
 C        -7.9108238744       -7.1111186178       -4.3766467789
 C        -7.5799457790       -5.6587842821       -4.4211106677
 O        -8.4254307197       -4.8951804656       -4.7525818076
 C        -6.1604932650       -5.1962584697       -4.0251165775
 C        -5.2043509135       -5.6000394829       -5.2245597140
 O        -5.2170315660       -6.7347788047       -5.6239850484
 C        -4.3194134902       -4.5648138301       -6.0395896551
 C        -2.8967108143       -5.0382010836       -6.1895317855
 C        -2.0466859499       -3.8044182014       -6.6226683534
 O        -2.6099375802       -2.7154019886       -6.6622944260
 C        -0.4457574790       -4.0846202535       -6.8975922472
 C        -0.3034616587       -5.3799570180       -7.7077107935
 O         0.5257732009       -6.2009830951       -7.3994949481
 C        -1.1160608183       -5.3983855814       -9.0104945829
 C        -0.1591392182       -5.8829919441      -10.1529975756
 C         0.7833071765       -4.9270675691      -10.7707718056
 O         0.8281682937       -3.7434675766      -10.5481763093
 C         1.7847412292       -5.5972474206      -11.7796299838
 C         1.8763251092       -4.6760078942      -13.0202360667
 O         1.8890156029       -5.1431967712      -14.1212163170
 C         2.2386984916       -3.1732436471      -12.8750533446
 C         2.6091988341       -2.5061724174      -14.2711576318
 C         2.9684816450       -1.0035847354      -14.3837706882
 O         2.3977979545       -0.3760227550      -15.2308341067
 C         4.1342328358       -0.3679755388      -13.6177539357
 C         4.5249680683        0.8855786089      -14.3984734248
 O         5.4060700866        0.8266647958      -15.2246608458
 C         3.7820609184        2.2723407717      -13.9397325128
 C         4.6185108211        3.0912427308      -12.8937886342
 C         5.5975176846        4.1450899133      -13.5044595219
 O         5.8116055131        4.1829998840      -14.7078274514
 C         6.3522840937        5.2312865410      -12.5475037062
 C         6.6853870885        6.5258251689      -13.3593380295
 O         6.2312441107        7.5717320344      -12.9577748508
 C         7.8457436166        6.5915938527      -14.4421164141
 C         7.4277054661        7.2804797225      -15.7466934674
 C         6.8009670086        6.2833812351      -16.7947274802
 O         6.8357764902        5.1045471332      -16.6110610236
 C         6.2374050543        6.7820886815      -18.2185158183
 C         7.4211831665        6.3640744714      -19.0977686497
 O         7.8418807597        5.2271939929      -18.9140273905
 C         7.7782334185        7.2935712047      -20.2503869828
 C         8.8209780645        6.7196693755      -21.3123301765
 C         8.1675306059        5.5697191576      -22.1630344949
 O         6.9788184180        5.6279710083      -22.3303282874
 C         9.0262886692        4.3160601402      -22.7130276159
 C         8.8383769589        3.0084451838      -21.8555332340
 O         8.0197996667        2.1194671356      -22.0309550258
 C         9.6631142061        2.9571032005      -20.5116514896
 C         9.6786612957        1.5336596694      -19.8307058765
 C         8.5370804009        1.3240994922      -18.9252362841
 O         8.2039693218        2.1476116292      -18.0699891517
 C         7.5435466060        0.0650284336      -19.1029824617
 C         6.0603852345        0.7188038116      -19.4333221845
 O         5.4311122841        1.3506449513      -18.5601880927
 C         5.3759017417        0.4685249989      -20.8362397220
 C         7.9442291599       -0.9407807817      -20.2054723994
 C         7.6833138610       -0.5763175897      -17.6261748062
 C         8.7252848344        4.0447975198      -24.1866749036
 C        10.6245806981        4.7466496703      -22.6742920204
 C         4.8311448446        6.1287901598      -18.5244064657
 C         6.1559214308        8.3326833449      -18.2830745934
 C         5.4915090672        5.7621982984      -11.4806208614
 C         7.7002908779        4.6312898035      -12.0063712361
 C         3.6279235294       -0.1054416970      -12.1811587272
 C         5.4636666270       -1.3815098091      -13.4490352487
 C         3.1632280920       -5.7929417851      -11.1280304828
 C         1.3900364869       -7.0464749495      -12.1676114748
 C         0.0776041982       -2.8808347672       -7.6923075362
 C         0.1575655092       -4.1869028098       -5.4664059752
 C        -6.2602988468       -3.6536720587       -3.8124691639
 C        -5.7027626095       -5.8694081275       -2.7404123601
 C       -11.8030782696       -9.2223745807       -1.9928069495
 C       -12.2249878936       -8.3432194011       -4.2075112965
 C       -15.0372039971       -2.9585288256        1.6348423861
 C       -15.9782685373       -5.4086937747        1.6970923915
 C       -15.2275242768       -4.1474101498       -5.8288163805
 C       -16.4583388586       -1.8393207821       -5.6634698492
 C       -21.4716746938       -5.9760102771       -6.1857323117
 C       -22.7234933850       -5.1607067971       -4.2319382818
 H       -20.6466397686       -8.7595531315       -3.9419991101
 H       -21.7754368689       -8.0474873936       -5.0898888630
 H       -22.1227152903       -8.1571833061       -3.2834381407
 H       -20.1101419709       -2.2634558944       -5.5185754190
 H       -20.8443857162       -3.4150899591       -6.6963674144
 H       -18.3426174759       -2.7947076724       -7.0677633493
 H       -18.7506801558       -4.5385661644       -7.1279280931
 H       -13.8328313053       -3.2837814269       -3.2963632546
 H       -14.9102227918       -4.6977639440       -3.0394569809
 H       -15.2061903440       -2.1878963387       -1.1827869857
 H       -13.8273178966       -3.2999512201       -0.8907231556
 H       -14.3459319469       -6.6206896900       -0.5232106884
 H       -13.2953112220       -7.1496394821        0.7470350080
 H       -11.4260625218       -6.8584329730       -0.3832760762
 H       -11.8694103563       -5.1709964021       -0.8868340626
 H        -9.7344831216       -6.3161096045       -4.9995396381
 H        -9.7557083434       -8.0697692842       -5.1427716148
 H        -7.2919341404       -7.6545969536       -5.1840869602
 H        -7.5900682387       -7.6093092807       -3.4443189324
 H        -4.2987850060       -3.5378822660       -5.6134909903
 H        -4.7894243014       -4.3044984544       -6.9977861562
 H        -2.7813165865       -5.8986819051       -6.8222875723
 H        -2.3906438341       -5.3266951415       -5.2687092535
 H        -1.7219571617       -4.4203825808       -9.2440149288
 H        -1.8984075068       -6.0961277010       -8.9151533828
 H        -0.6839174756       -6.5205636112      -10.8719706864
 H         0.5700245665       -6.6407429152       -9.6791064506
 H         2.9232391848       -2.9928999836      -12.0419108600
 H         1.3473209095       -2.6034887137      -12.4447860058
 H         1.8276369269       -2.7365534020      -14.9084188859
 H         3.4993094242       -3.0050588192      -14.6875098524
 H         2.7522852668        2.0837628219      -13.4822590781
 H         3.6180511957        2.8751857306      -14.8640246678
 H         5.1041584895        2.3602891310      -12.3293620944
 H         3.8944412354        3.6805260663      -12.3361243173
 H         8.3040281656        5.6086613091      -14.7282081640
 H         8.6516490616        7.2613650142      -14.0472828540
 H         8.2900493396        7.8299212383      -16.2808099358
 H         6.7347968297        8.1271158205      -15.5069021145
 H         8.0745039851        8.3254615182      -19.9320629953
 H         6.8890525680        7.6109240547      -20.8491678271
 H         9.7295580303        6.4567613142      -20.8215618542
 H         9.1144518179        7.4741318636      -22.0905315324
 H         9.0839267724        3.6160338728      -19.7792550763
 H        10.6559957472        3.4815549732      -20.5850986242
 H        10.5409030113        1.3661321990      -19.1920857530
 H         9.7740957045        0.7128354064      -20.6385425184
 H         5.7481924882       -0.2262761503      -21.5427549263
 H         5.2107419465        1.4806019148      -21.2359827879
 H         4.3062413582        0.1592879536      -20.6990538773
 H         7.0392594329       -1.4310358485      -20.5690960953
 H         8.6129792109       -1.7140533697      -19.9752223744
 H         8.3380594669       -0.4921550335      -21.1039976869
 H         8.6753317647       -0.7207591958      -17.2773365076
 H         7.4293787149       -1.6323381692      -17.7433754705
 H         6.9982905853       -0.1797775465      -16.8567409037
 H         8.7559482313        3.0086706825      -24.3046141781
 H         9.4127789424        4.5707676321      -24.8594091259
 H         7.7365233782        4.4508222934      -24.5835101942
 H        11.2661631338        3.9238596757      -23.0799486985
 H        11.0181483026        5.0844521448      -21.6969169075
 H        10.8006922077        5.7581210441      -23.1637479984
 H         4.2094246812        6.2694636926      -17.6327000335
 H         4.9746596102        5.1111451021      -18.7767203261
 H         4.2781079554        6.7215307921      -19.2283101135
 H         7.1129181414        8.7822413405      -18.0162602774
 H         5.4540235478        8.8057482139      -17.6325659589
 H         5.9833215800        8.7368181947      -19.2731078265
 H         5.9091640990        6.1771461409      -10.6066427264
 H         4.8467060633        5.0164453057      -11.0510394083
 H         4.7274752442        6.4910490984      -11.7883720443
 H         7.7941399700        4.2105496882      -11.0505264584
 H         8.2828675019        5.5324829415      -11.8565475539
 H         8.1958154367        3.9315150087      -12.7420140341
 H         4.3083436939        0.4504954322      -11.5589831290
 H         3.4802707343       -1.0048916586      -11.6464973965
 H         2.6730027339        0.3417022290      -12.3283753707
 H         4.9502386618       -2.3625165760      -13.3301251312
 H         6.0091507289       -1.0502443123      -12.6336906593
 H         5.9300184757       -1.3012530539      -14.4478229056
 H         3.1542768236       -6.3154891597      -10.1695375722
 H         3.6933775715       -4.9007744764      -10.9723793328
 H         3.6751953846       -6.3564922112      -11.9061506849
 H         0.3983710680       -7.0999535978      -12.6487460779
 H         1.4494340308       -7.7281568494      -11.3774299743
 H         1.9879893820       -7.3413157305      -12.9894451576
 H         0.0463509867       -1.9648552392       -7.0518917766
 H        -0.5526347767       -2.8426427749       -8.5755314159
 H         1.0896569537       -3.0795602085       -8.0126996238
 H         0.0150454414       -5.2571081869       -5.1601107920
 H        -0.4513329743       -3.5270381832       -4.8581807716
 H         1.1770581324       -3.8951697068       -5.2860207086
 H        -6.5699261997       -3.1923668867       -4.8036069469
 H        -5.2377615110       -3.3842012192       -3.4109833965
 H        -6.9672541537       -3.2873190854       -3.1045664027
 H        -6.3286873207       -5.4717935969       -1.9691864496
 H        -4.7015947364       -5.4832195439       -2.5424897776
 H        -5.6489545095       -6.9343317153       -2.7871846634
 H       -12.8184665817       -9.5180272341       -2.1134350329
 H       -11.6114627017       -9.1137618631       -0.8901338656
 H       -11.1837133855      -10.0843446165       -2.3903554396
 H       -13.3489281503       -8.5877656998       -4.1052821690
 H       -11.8924661530       -9.3078854731       -4.5893268400
 H       -12.2401513379       -7.5743849535       -4.9561707289
 H       -14.0736235535       -2.5439315718        1.3050944155
 H       -14.9466371369       -3.0246415373        2.7685332415
 H       -15.8227392773       -2.2707916420        1.3245870551
 H       -15.9323630817       -5.2914637774        2.8300504611
 H       -15.5017003424       -6.4243277856        1.6103801213
 H       -17.0648268427       -5.4103081356        1.4205841879
 H       -14.5477992431       -4.5467778972       -5.0669221829
 H       -14.6876423034       -3.6145467271       -6.5306799359
 H       -15.6923061458       -4.9275967586       -6.4112874019
 H       -17.3440090305       -1.2832092051       -5.1266467882
 H       -16.5664395155       -1.8250393350       -6.7566044673
 H       -15.5966458344       -1.1768086169       -5.5418609008
 H       -20.4239247840       -6.1803534288       -6.3740924787
 H       -21.8272445379       -5.1512747868       -6.7087326522
 H       -22.1763065472       -6.8297753125       -6.3645767253
 H       -22.9503134761       -4.1610434226       -4.4096651811
 H       -22.9406380347       -5.3172196496       -3.1717698684
 H       -23.3740798333       -5.7762743652       -4.8577592073
 Na      -18.3779694284       -4.8245682381       -2.5307061884
 Na        6.1083631179        2.7917038761      -16.8112651933
