232

 C        -5.5178974231        0.9619250386      -13.2092927699
 C        -5.7296186594        1.9037742773      -12.0865598102
 O        -5.4966722548        1.8745854183      -10.9140909957
 C        -6.3906096425        3.5253848899      -12.5685286459
 C        -5.5908997054        4.6758938379      -11.8776839127
 O        -5.8100843965        5.0580921956      -10.7811255747
 C        -4.4601853692        5.4539145377      -12.7410935426
 C        -3.4474898435        6.0871454548      -11.7589771225
 C        -2.7009395944        5.1069766797      -10.8325656560
 O        -2.9195137376        3.8747617999      -10.8420651851
 C        -1.5149787434        5.6184853039       -9.8551338521
 C        -2.1422414149        5.5781329715       -8.3679776217
 O        -1.9884674828        4.5422460319       -7.6909624270
 C        -3.0343864467        6.6870174303       -7.8496239890
 C        -3.7855927733        6.2613191167       -6.5270991641
 C        -5.2833268726        6.1520937041       -6.8958399547
 O        -5.7857505307        5.2727348279       -7.6433357283
 C        -6.2992024748        7.2402881272       -6.4523175655
 C        -7.3897911795        6.2333495448       -5.7693937001
 O        -7.0658271064        5.7950358917       -4.6802900825
 C        -8.7023467342        5.8955580270       -6.5410159185
 C        -9.5995717059        4.7654018315       -5.9681657488
 C        -9.9167045222        3.7080317570       -7.1123961407
 O        -9.9130609449        3.8638034969       -8.2984323770
 C       -10.1649958728        2.2008342903       -6.5726739387
 C        -8.8573995051        1.5567492932       -6.1389018666
 O        -8.0813758920        2.2068202967       -5.4595585109
 C        -8.5048816372        0.2154957405       -6.7069598788
 C        -7.0365368403       -0.2356602515       -6.4679442339
 C        -6.0699091783        0.9134515911       -6.8884856906
 O        -6.2819138201        1.5844872073       -7.8221977147
 C        -4.7250093335        1.0176159117       -6.0862155367
 C        -3.4735325438        1.3058253008       -7.0597815187
 O        -3.5434151607        2.2547629630       -7.8002495297
 C        -2.2913544475        0.3491626674       -7.0911346676
 C        -1.0364977820        1.1396909626       -7.7636008159
 C        -0.3428844101        0.1565521929       -8.7400183440
 O        -0.9478093025       -0.5983395739       -9.4607876700
 C         1.2249580147        0.2841788235       -8.8099266584
 C         1.7558132210       -1.1339649000       -8.4017750322
 O         1.5063373431       -1.4694242976       -7.3048368370
 C         2.3801813955       -2.0912243855       -9.4531881473
 C         3.2833500996       -3.1301899628       -8.8425910599
 C         3.1139003348       -4.6361362619       -9.2780233718
 O         2.1065702587       -4.8473750833       -9.9223899888
 C         4.1622727680       -5.5855692883       -8.7411090350
 C         4.1976890280       -7.0580528106       -9.4157478976
 O         3.4499666608       -7.4156643377      -10.2930631481
 C         5.3632997764       -7.9996747464       -9.1435763985
 C         4.7389433964       -9.2622485561       -8.4252508826
 C         4.9078292765       -9.1414143180       -6.8907943726
 O         5.7743503158       -8.4240803280       -6.3998246232
 C         3.9920987904      -10.0195658288       -5.9726473023
 C         2.6914971699      -10.3916501789       -6.8583023060
 O         2.7975230671      -11.1167205516       -7.7930488860
 C         1.2955601404       -9.6366758685       -6.6248864037
 C         0.2546234246       -9.8763616477       -7.7553932000
 C         0.1714709489       -8.8311939743       -8.8687301913
 O         0.9967061759       -7.9455390986       -8.9223139274
 C        -0.8774534377       -9.1036990898      -10.0229219103
 C        -0.2218582721       -9.0154874828      -11.4619548938
 O         0.9767489105       -9.0782387743      -11.6673002606
 C        -1.2191745010       -9.0139342717      -12.6255253917
 C        -0.4733383270       -8.8166352730      -13.9857857938
 C        -0.1138864711       -7.2920812763      -14.2119875639
 O         0.6062964617       -6.7176710765      -13.4358077285
 C        -0.6790968608       -6.5437705868      -15.5139511654
 C        -2.0646089193       -5.9145916879      -14.9279710536
 O        -2.1643173959       -5.8665107913      -13.7101499125
 C        -3.0124913480       -5.3279305517      -15.9666793982
 C        -3.9864320649       -4.2978768446      -15.4030642252
 C        -4.9320211297       -4.9530389407      -14.3661596365
 O        -4.7906718528       -6.0976512160      -14.0388049869
 C        -5.9208252045       -3.9922971285      -13.3785945671
 C        -6.6216969266       -2.8780120128      -14.1471865778
 O        -6.0855507080       -1.7899972000      -14.2525862402
 C        -8.0576023520       -3.2162680869      -14.7232574468
 C        -8.6103713573       -2.1471155928      -15.6171000539
 C       -10.0712596437       -1.7939992045      -15.3091466973
 O       -10.6178471307       -2.2699098016      -14.3093015897
 C       -10.7809049399       -0.8485079938      -16.4077708471
 C        -9.8052447763        0.4219509326      -16.9345807856
 O        -8.7586622545        0.7697067532      -16.4621304469
 C       -10.3286369824        1.1687546258      -18.1805644098
 C       -11.1122912898       -1.7877840334      -17.6193774733
 C       -12.1104196979       -0.1918773233      -15.8047593002
 C        -6.8218085501       -4.9591397450      -12.5529095122
 C        -4.8404960482       -3.3413198967      -12.4812470165
 C         0.1030416418       -5.3504338671      -15.8596105438
 C        -0.8465218018       -7.4555803688      -16.8278025293
 C        -1.6793296589      -10.4440546527       -9.8513304189
 C        -1.7858994018       -7.8717017139       -9.9015768291
 C         4.6244101026      -11.3455279268       -5.6280778364
 C         3.6554447282       -9.0215332357       -4.7627080527
 C         5.5648675400       -5.0154135027       -9.1011247898
 C         3.9488914176       -5.7028572467       -7.2489564371
 C         1.5799846597        0.6560611012      -10.2911113288
 C         1.8007635621        1.2474234173       -7.7679668255
 C        -4.8084001827        2.2725193485       -5.0839901633
 C        -4.5719874837       -0.2299979780       -5.1467792493
 C       -10.9953248456        2.1799954006       -5.2461540015
 C       -11.1051683007        1.4332518692       -7.6412295681
 C        -5.7486588980        8.2903766540       -5.4168860439
 C        -6.7107243497        8.0569197545       -7.7502008749
 C        -0.1966287407        4.8054861678       -9.9318300287
 C        -1.3167586601        7.2066343980      -10.0571459020
 C        -6.5013537679        3.6578760388      -14.1327287738
 C        -7.8003287327        3.5314447130      -11.9335252973
 H        -6.4001698392        0.7855420297      -13.8030401284
 H        -5.1417441549       -0.0208030605      -12.9301254868
 H        -4.7477492321        1.3852074702      -13.8182408947
 H        -4.8907402226        6.2558403966      -13.4107652492
 H        -3.9325169901        4.7415128642      -13.3688697182
 H        -3.8224229736        6.8908723845      -11.1402218199
 H        -2.7083852306        6.5523027052      -12.3647805986
 H        -3.6871826707        7.0393259964       -8.5708426203
 H        -2.3820743026        7.5296639185       -7.4872594720
 H        -3.5612991546        6.9945573100       -5.7333108219
 H        -3.3632298876        5.2896702389       -6.2677902139
 H        -8.4800735675        5.5131541081       -7.5423506110
 H        -9.3019201921        6.8645605217       -6.5568602209
 H       -10.5639204719        5.2275020834       -5.6635390171
 H        -9.1650852000        4.3645007929       -5.0287088501
 H        -8.6715005379        0.1295469379       -7.8135589008
 H        -9.1593893151       -0.5997666924       -6.2088918040
 H        -6.8304008050       -1.0892112110       -7.1186156028
 H        -6.8556496486       -0.4717310763       -5.3737320171
 H        -2.7335842263       -0.4742577088       -7.7916093175
 H        -1.9630706371       -0.1136696199       -6.1390475659
 H        -0.4374777820        1.6220348782       -6.9965676447
 H        -1.5820166309        1.8972481243       -8.4073208592
 H         2.8706516526       -1.4111513095      -10.2024446478
 H         1.5443936271       -2.5987730818       -9.9698010199
 H         3.2662948437       -3.3644583297       -7.7600389926
 H         4.3462044942       -2.7938289032       -9.0793734984
 H         6.2157999422       -7.5626203527       -8.4942548615
 H         5.7990721543       -8.3494891823      -10.1033746070
 H         5.1718363679      -10.2123872819       -8.7129610308
 H         3.6867294986       -9.4094239898       -8.6826474432
 H         1.7439199442       -8.6529937555       -6.4405374896
 H         1.0713194161      -10.1092037929       -5.6103908778
 H        -0.7907077257       -9.9552203600       -7.1994913935
 H         0.4901645604      -10.8394754148       -8.2326984626
 H        -2.0149256793       -8.2840198138      -12.5132759891
 H        -1.8277215679       -9.9400079003      -12.6631296978
 H        -1.2130191123       -9.3160785429      -14.8169290916
 H         0.4458351352       -9.2587372275      -13.8950103879
 H        -3.5753903564       -6.0496837825      -16.6455557580
 H        -2.4845671080       -4.6648836181      -16.6840985058
 H        -4.6039077460       -3.7596633377      -16.0369159978
 H        -3.4616329080       -3.4343076083      -14.8652149770
 H        -8.8432881040       -3.2132290170      -13.8879418203
 H        -8.0452251289       -4.2983933623      -15.0824906537
 H        -8.6811526596       -2.5847822617      -16.6895518429
 H        -8.0153080141       -1.2362900213      -15.4955447528
 H        -9.4914780742        1.5442955294      -18.8028800717
 H       -10.9911461548        1.9736840965      -17.9143129621
 H       -10.7692241644        0.4788269427      -18.8462613320
 H       -10.1767533850       -2.2800889364      -17.9915875505
 H       -11.5521125062       -1.3057330587      -18.4595222654
 H       -11.8565010343       -2.5465331348      -17.2774333776
 H       -11.8128098329        0.5204186490      -15.0153029622
 H       -12.7776249004       -1.0091079348      -15.5367612774
 H       -12.6472607471        0.4311359123      -16.5655232298
 H        -7.5933589470       -4.3245069902      -12.0007517789
 H        -6.3242498698       -5.4009262797      -11.7813630261
 H        -7.3917235560       -5.6007186881      -13.1858232250
 H        -4.4241052067       -2.5169221291      -13.0737740268
 H        -4.1823286981       -4.1506601808      -12.1319478311
 H        -5.2382117326       -2.8989651014      -11.6131266361
 H        -0.1736984253       -5.0203316521      -16.9153115287
 H         1.1694846956       -5.6286944259      -15.7866183566
 H        -0.0359438964       -4.4328936362      -15.2721596952
 H        -1.4034382087       -6.8167097219      -17.4937304237
 H        -1.4357619270       -8.2942945500      -16.5951918882
 H         0.1541040543       -7.6907402972      -17.2843873165
 H        -2.5264942735      -10.6166141468      -10.4939651437
 H        -2.0656721442      -10.5994963187       -8.8214797570
 H        -1.0531569946      -11.3756878194      -10.0915232942
 H        -2.6870069244       -7.8205190647      -10.5762007897
 H        -1.2028833314       -6.9302967697      -10.0831965696
 H        -2.0958818962       -7.7413232261       -8.8288695370
 H         4.6936166757      -11.4779595177       -4.5622102079
 H         5.6339509253      -11.4391404650       -5.9510265182
 H         4.1404808588      -12.1751562382       -6.0951094059
 H         4.5283743905       -8.7130564814       -4.1659693643
 H         3.0070952270       -9.6698332119       -4.1559418194
 H         3.1241842593       -8.0699281110       -4.9118531294
 H         6.4899050324       -5.5792840414       -8.7879202833
 H         5.6990851479       -3.9924445202       -8.6724181016
 H         5.6158087892       -4.8349777792      -10.1639950825
 H         3.2896361701       -6.4349129498       -6.9646765426
 H         3.6282017713       -4.7225265874       -6.9094512528
 H         4.9493867781       -6.0247300598       -6.7502684699
 H         1.2253336073       -0.0660054191      -11.0189528689
 H         2.6482544143        0.7866705299      -10.3467353192
 H         1.1605523472        1.5478381380      -10.5997918751
 H         2.9240607264        1.0351253838       -7.8327190911
 H         1.3451159782        1.0181991230       -6.7957920774
 H         1.7952674570        2.2880762025       -8.0622813154
 H        -5.8586666346        2.2983077861       -4.8916205044
 H        -4.4073939140        3.1821289963       -5.5579677989
 H        -4.1897488230        2.1094211736       -4.1753599507
 H        -5.1892998556       -0.2560670818       -4.2556098756
 H        -3.5234521180       -0.2478097722       -4.8480840696
 H        -4.7931872340       -1.1741572549       -5.6079746144
 H       -11.9324860259        2.6097357992       -5.3972484383
 H       -10.4661031161        2.7233872240       -4.4795306209
 H       -11.0804241899        1.1374523312       -4.9505162387
 H       -12.1058259071        1.6704614858       -7.2875167215
 H       -10.9642210641        0.3512569363       -7.8596004906
 H       -11.0050466273        1.9563695716       -8.5763097093
 H        -6.3884766052        9.1811303527       -5.2258914745
 H        -4.7226611842        8.6321762698       -5.5995516770
 H        -5.7354722853        7.7324775512       -4.4711217127
 H        -7.3591230401        7.4374427683       -8.3273710885
 H        -5.8142448682        8.2824745657       -8.3892752134
 H        -7.2012022569        8.9483056557       -7.4024738931
 H         0.5709657079        5.1600059385       -9.2155029332
 H         0.1418044623        4.7111785726      -10.9238257009
 H        -0.4212406425        3.7846717549       -9.5781826475
 H        -2.2510998925        7.6990949942       -9.8760212759
 H        -1.0517215443        7.5464036990      -11.0584050154
 H        -0.5611553235        7.6191561256       -9.4537713609
 H        -5.5707923738        3.4930666032      -14.7459787565
 H        -6.7623039236        4.7461747815      -14.2372817591
 H        -7.3296451688        3.0283373265      -14.5007403451
 H        -8.1955088795        4.4731324857      -11.7075394015
 H        -7.7182879954        3.0455349062      -10.9413559760
 H        -8.3143271941        2.9806019799      -12.6384530485
 Na       -5.0552986710        3.3529602267       -9.0919546251
 Na        1.4435622919       -6.7766216410      -11.1659122560
