232

 C        -5.0609820567        1.1909787279      -13.5204596631
 C        -5.5731614811        1.9939899774      -12.3535733053
 O        -5.3187625918        1.7573762522      -11.1568652199
 C        -6.4773833484        3.3909731543      -12.6628930668
 C        -5.6381387777        4.4202368220      -12.0194589908
 O        -5.8382653194        4.8835823418      -10.9443927098
 C        -4.2684295240        4.8880448739      -12.9076414005
 C        -3.3722800366        5.7835430947      -12.1595237782
 C        -2.7742397898        5.1699090132      -10.8818715638
 O        -3.1570570971        4.0567742021      -10.5881089432
 C        -1.6127361355        5.8405328213      -10.0662742106
 C        -1.9932933365        5.7698705279       -8.4670971913
 O        -1.8043633349        4.8536188869       -7.6970558808
 C        -2.7319297557        7.0574614745       -8.0120280183
 C        -3.6270611030        6.6679755384       -6.8217828167
 C        -5.1256441234        6.3649993920       -7.0142888577
 O        -5.4182186960        5.3776869747       -7.7105585754
 C        -6.2938606025        7.2693194827       -6.3766726592
 C        -7.3966984499        6.2443612083       -5.7806560199
 O        -7.3191099964        5.9317833405       -4.6275455543
 C        -8.6407349761        5.9701159985       -6.6536147814
 C        -9.4885941655        4.7472946767       -6.1925027945
 C        -9.7797423939        3.6430921538       -7.2639400637
 O        -9.4677055468        3.8093132930       -8.4470464939
 C       -10.1941978379        2.2514697701       -6.7210750313
 C        -8.7158452173        1.6336204290       -6.3562571621
 O        -7.9841307459        2.1930580848       -5.5610188750
 C        -8.3840444482        0.2575301633       -6.9166047234
 C        -6.9818817205       -0.3499690746       -6.3799595866
 C        -5.8897126853        0.6856474571       -6.8537208625
 O        -6.2570395370        1.2689023705       -7.8751082613
 C        -4.6040756168        1.0076858723       -6.0313571330
 C        -3.3806732003        1.3108102263       -7.0925744968
 O        -3.4726912405        2.3895488980       -7.6663603777
 C        -2.3155459734        0.4092513762       -7.4105490399
 C        -0.9161266875        1.1336306847       -7.5337473685
 C        -0.1107547578        0.3336397713       -8.6842042992
 O        -0.7397005024       -0.3518592078       -9.4592673812
 C         1.3787316024        0.3339052627       -8.8417026382
 C         1.7920727267       -1.1149209684       -8.2343438691
 O         1.8069568426       -1.2935027860       -7.0423694602
 C         2.0537797007       -2.3443499007       -9.2563285412
 C         2.6890610106       -3.5494509948       -8.5809115325
 C         2.9785211677       -4.7859270096       -9.5383854428
 O         2.1497108543       -4.9796226164      -10.4461856089
 C         4.2664875027       -5.7335663276       -9.0235235249
 C         4.3945839367       -7.0757548142       -9.8361269447
 O         3.5806920864       -7.5051160541      -10.6404243515
 C         5.5019552816       -8.0535262034       -9.4718476709
 C         4.9435156458       -9.3323592271       -8.6107320915
 C         4.9470185395       -9.1045018369       -7.0836450025
 O         5.7701328136       -8.3743011917       -6.5244322225
 C         3.9619373022       -9.8085086258       -6.2253362528
 C         2.6061867662      -10.3636056396       -6.8928249934
 O         2.4562212886      -11.4399117475       -7.4237171451
 C         1.3841462836       -9.3690289224       -6.7682255210
 C         0.1749278652       -9.8065693885       -7.6476776068
 C         0.0455813312       -8.8067841093       -8.7861683363
 O         0.8545185540       -7.8756500344       -8.9092674586
 C        -1.0516853073       -8.9616838562       -9.9505937516
 C        -0.3110151379       -9.2565572313      -11.2622349018
 O         0.9204385153       -9.4723119567      -11.1968308644
 C        -1.1469229524       -9.4198705202      -12.5620958988
 C        -0.1614503193       -8.9003103858      -13.6148227619
 C        -0.0519261772       -7.3546943025      -13.7850790883
 O         0.3821998889       -6.6833912768      -12.8931575381
 C        -0.5905122201       -6.5185101102      -14.9827113897
 C        -1.9989102105       -5.8245722421      -14.5445631767
 O        -2.3447510951       -5.8298651863      -13.3876910065
 C        -2.9140555546       -5.3327337746      -15.6506584502
 C        -3.9499970627       -4.2699259183      -15.1139323227
 C        -5.1310707996       -5.0262718699      -14.3524606129
 O        -5.3098860586       -6.1846647710      -14.5688513786
 C        -6.0860828222       -4.0926583516      -13.3527837944
 C        -6.4768696696       -2.9765107260      -14.3065002731
 O        -5.7435130311       -2.0255549516      -14.4606196509
 C        -7.8135436289       -3.1461201697      -15.0528697098
 C        -8.4630933436       -1.7767576839      -15.4673824953
 C       -10.0257306192       -1.8074712901      -15.3002736204
 O       -10.6735921064       -2.5844932127      -14.6650778541
 C       -10.8324024164       -0.8597019455      -16.3037305883
 C       -10.1556294005        0.6097271825      -16.4730497837
 O        -9.2938689785        0.9704880397      -15.7128648652
 C       -10.6463222198        1.6083697431      -17.5247533611
 C       -10.9540520066       -1.5715552537      -17.6833377215
 C       -12.2717427657       -0.5382529234      -15.8538461374
 C        -7.1906356949       -5.0443022085      -12.7992591351
 C        -5.2502357281       -3.4527789571      -12.1891407095
 C         0.4368148093       -5.3757782770      -15.3728769559
 C        -0.9256015175       -7.2999418953      -16.3599367081
 C        -2.0502463066      -10.0817803277       -9.4919478944
 C        -1.8583707182       -7.5777213717      -10.1099949663
 C         4.5931140643      -11.2273302987       -5.6804483919
 C         3.6682262076       -8.9052233598       -4.9248402727
 C         5.6277190354       -4.9446016932       -9.1219611678
 C         3.7876978640       -5.9933965083       -7.5436416244
 C         1.8067885624        0.5798616493      -10.3163554604
 C         1.9969197281        1.3517193377       -7.7997229448
 C        -4.8052478737        2.2978724386       -5.2291988400
 C        -4.2605492497       -0.1702625612       -5.0629052740
 C       -10.9082828570        2.4324146477       -5.3390438137
 C       -11.1144987515        1.6055703509       -7.7509774824
 C        -5.9191623768        8.1563370064       -5.1244937088
 C        -6.7469497492        8.1018768503       -7.5538986891
 C        -0.3705274163        4.8631741498      -10.3147063145
 C        -1.3748270573        7.2519164429      -10.5657443814
 C        -6.9009636653        3.7044514589      -14.1421405716
 C        -7.8360474323        3.2655498681      -11.8064432238
 H        -5.8590309281        0.5450871637      -13.9171116571
 H        -4.2212592626        0.4955228437      -13.4382759938
 H        -4.7989299271        1.8537216496      -14.4055177280
 H        -4.7057857171        5.3062038204      -13.8683564413
 H        -3.7944455665        3.9692013141      -13.2501997219
 H        -3.9904968536        6.6318950844      -11.7883209802
 H        -2.5897559873        6.2404749609      -12.7062772093
 H        -3.3351703328        7.5988007609       -8.7287751630
 H        -1.8473923007        7.7093939393       -7.6635035701
 H        -3.5490871562        7.3309427498       -5.9892977725
 H        -3.2515271837        5.7100096387       -6.6255563605
 H        -8.3753303326        5.7817708796       -7.6787977282
 H        -9.2347409244        6.9218665122       -6.6832323810
 H       -10.3534423636        5.1425994709       -5.6934888944
 H        -9.0495903101        4.2526234547       -5.2439376805
 H        -8.3429809344        0.3274992435       -7.9946048954
 H        -9.1878824412       -0.4522605214       -6.5850334960
 H        -6.6055747612       -1.3013713926       -6.8076826937
 H        -7.1242068211       -0.4932617839       -5.3042752066
 H        -2.4354124077       -0.0859884312       -8.4404284713
 H        -2.2182210182       -0.4117581068       -6.7169542547
 H        -0.1639629270        0.9275500166       -6.7301047655
 H        -1.0333014120        2.2015822991       -7.8928724954
 H         2.7723746957       -1.9155210591       -9.9760179739
 H         1.1595433791       -2.4532005249       -9.9074770013
 H         1.9319081857       -3.9081767258       -7.7915944854
 H         3.6452448705       -3.3139584599       -8.0043065989
 H         6.3655047329       -7.5486231286       -8.9453271052
 H         6.0122113950       -8.3105760901      -10.4242721651
 H         5.5137015437      -10.2252172907       -8.7104945122
 H         3.9479288917       -9.6589751294       -8.9546358906
 H         1.6377749195       -8.3443937841       -6.9741322427
 H         1.0968583136       -9.5942408975       -5.6985564912
 H        -0.8096311786       -9.7488872478       -7.0239942250
 H         0.2172231583      -10.7538140385       -8.1418309616
 H        -2.0712060784       -8.8341464627      -12.5801750285
 H        -1.4176164952      -10.5084713493      -12.6569208206
 H        -0.6129724843       -9.2373539390      -14.6002686814
 H         0.7657793312       -9.4400984089      -13.4893384356
 H        -3.5676387106       -6.0652699667      -16.1721152520
 H        -2.4377366125       -4.8584211911      -16.5001158765
 H        -4.4728647135       -3.7565242446      -15.8769524663
 H        -3.5894769885       -3.4325832647      -14.4697168676
 H        -8.4055033147       -3.7148616140      -14.3248245172
 H        -7.7711592461       -3.8139240298      -15.9296482573
 H        -8.2776541775       -1.6609259328      -16.6425335142
 H        -7.9680923740       -0.9076031896      -15.0007871001
 H        -9.7049064622        2.1174695813      -17.8363807622
 H       -11.3232092086        2.2879792324      -17.0466911598
 H       -11.0214548415        1.2277173976      -18.4633696681
 H       -10.0054565998       -1.5890492090      -18.2425612795
 H       -11.7002151580       -1.0875277614      -18.2587300676
 H       -11.2363781373       -2.6163899997      -17.6082648824
 H       -12.3857497852        0.1168645445      -14.9565405409
 H       -12.7443125968       -1.4845039060      -15.6065354735
 H       -12.7335111427        0.0212077639      -16.6239453359
 H        -8.1284118448       -4.5249271474      -12.4511377934
 H        -6.8973833302       -5.5519928023      -11.9162388855
 H        -7.3140378738       -5.8254988869      -13.4939475709
 H        -4.3487703474       -3.0333627688      -12.7109077642
 H        -4.8598416799       -4.3234026531      -11.6829255032
 H        -5.7612077481       -2.7178660125      -11.5590389114
 H         0.0066977120       -4.5898919611      -16.0243158811
 H         1.2130014867       -5.8769939846      -15.9138904043
 H         0.8849423548       -4.8807956042      -14.5060754672
 H        -1.0620287699       -6.5196494218      -17.1376115372
 H        -1.8405301330       -7.8387102323      -16.1641905203
 H        -0.0807592999       -7.9783937019      -16.6375619257
 H        -2.7889599538      -10.4353688918      -10.2326893674
 H        -2.7765079281       -9.6613638956       -8.7838790606
 H        -1.4795827728      -10.9599058497       -9.0962385993
 H        -2.4121944503       -7.5440883278      -11.0344303276
 H        -1.2632572447       -6.6965425505      -10.0447239921
 H        -2.5863743375       -7.6121874848       -9.3030338099
 H         3.8594989068      -12.0602905361       -5.8351949993
 H         4.9076945951      -11.1646858395       -4.6009447973
 H         5.5278530775      -11.5713541024       -6.2481941166
 H         4.5465425488       -8.5814869197       -4.3676404648
 H         2.9016683712       -9.2426977007       -4.2990017183
 H         3.1976364931       -8.0197624095       -5.3294398861
 H         6.4208009017       -5.1568647551       -8.3866681253
 H         5.5217257566       -3.8679826777       -8.9649561831
 H         6.1187605084       -5.0855699636      -10.0635001908
 H         2.7960869017       -6.2846540175       -7.6944021074
 H         3.9142055108       -5.1263176804       -6.8661790221
 H         4.4006757592       -6.7817651725       -7.0943269935
 H         1.1184046533        0.0334443029      -10.9049956703
 H         2.8555193444        0.3256719182      -10.5132370344
 H         1.5898001705        1.5527713240      -10.6623358132
 H         2.8471036983        1.8847262917       -8.2666678583
 H         2.1443805274        0.7506201576       -6.9039744179
 H         1.3886484580        2.1238872968       -7.5882150585
 H        -5.3505445883        1.8731816751       -4.3961605419
 H        -5.4291996433        3.0144236461       -5.7704679150
 H        -3.8072244008        2.7155845647       -4.9215202149
 H        -4.9147052095       -0.3051988961       -4.1643656655
 H        -3.1861217575       -0.0001735799       -4.8418813083
 H        -4.1940838536       -1.0365479654       -5.6897175832
 H       -11.6723529691        3.1737385094       -5.4449856607
 H       -10.2345494449        2.6660987228       -4.5333704379
 H       -11.3940887660        1.4466637599       -5.1901080883
 H       -11.6757065364        2.3732222460       -8.2805047378
 H       -11.9695664622        1.0759094933       -7.2253029476
 H       -10.6573824189        0.8841563222       -8.4254325995
 H        -6.7483125597        8.6518368152       -4.6591236343
 H        -5.3827013433        9.0628569392       -5.4844709166
 H        -5.2636338512        7.6154951231       -4.4100605266
 H        -6.9538094675        7.5347789695       -8.4914166649
 H        -5.9725375909        8.9647066908       -7.6225939308
 H        -7.6289316457        8.7125902796       -7.2935788180
 H         0.4841386394        5.3343125817       -9.9299245237
 H        -0.2077125768        4.6977113900      -11.3417701249
 H        -0.4627149928        3.9093104248       -9.8578796736
 H        -2.0450641879        7.9082562005      -10.0749707561
 H        -1.4585318824        7.4855157226      -11.6548470915
 H        -0.4237055514        7.6265542296      -10.2917285253
 H        -5.9978700641        3.7928538127      -14.7149965277
 H        -7.2800507464        4.7199072556      -14.1925408346
 H        -7.6887734996        3.0633020736      -14.4391224882
 H        -8.2207445716        4.1685277001      -11.3914693136
 H        -7.5327446380        2.5175664432      -11.0860154123
 H        -8.4883060054        2.7656767535      -12.4189288710
 Na       -5.2393466756        3.2262424866       -8.9116844852
 Na        1.2101374201       -7.0704311083      -10.9070264063
