232

 C        -5.0921964453        1.2596469661      -13.5780300876
 C        -5.6637310109        1.9949309547      -12.4087335460
 O        -5.3385536274        1.7124968229      -11.2089202241
 C        -6.4412193796        3.2105723572      -12.6481272698
 C        -5.5864579614        4.4386897618      -12.0786691579
 O        -5.8288793543        5.0519669332      -11.0489424054
 C        -4.3422867733        4.8547237357      -12.8195130721
 C        -3.3581189315        5.7994186428      -12.1998346276
 C        -2.8626845679        5.1613520793      -10.7837932406
 O        -3.2424841333        4.1115046774      -10.4031334681
 C        -1.5971691245        5.9132828727      -10.1205254361
 C        -2.0402830889        5.8455625529       -8.6191318116
 O        -1.6711579199        4.9566689881       -7.9209311090
 C        -2.7511054166        7.0444215786       -8.0641723699
 C        -3.5828908611        6.7389918799       -6.7633126706
 C        -5.0711690347        6.3590326579       -7.0230304893
 O        -5.4371567259        5.4366487801       -7.7078695702
 C        -6.1703705903        7.2969802927       -6.3568057054
 C        -7.4249214313        6.3282289711       -5.7678711217
 O        -7.4323153035        5.8134436167       -4.6808582792
 C        -8.5815420636        6.0552653262       -6.7362740304
 C        -9.4658761710        4.8321335778       -6.2367143918
 C        -9.6297620842        3.7261516942       -7.2799931583
 O        -9.3728044600        3.8678045419       -8.4585793564
 C       -10.2294361614        2.2541618949       -6.7562323778
 C        -8.8389788290        1.4602381147       -6.3822772424
 O        -8.1740657379        2.0996458551       -5.5917471009
 C        -8.4264362234        0.0854849204       -6.8644797401
 C        -7.0063413003       -0.2632589774       -6.3608304768
 C        -5.8827498187        0.7121702964       -6.9144625889
 O        -6.0564596454        1.2791428538       -8.0097316471
 C        -4.5959932123        0.9783964872       -6.0684045438
 C        -3.3690316909        1.3856512181       -7.1013593877
 O        -3.3664222673        2.4689694567       -7.6160470184
 C        -2.3314981486        0.3218497959       -7.3503669061
 C        -0.9423513150        1.0073599366       -7.5836347808
 C        -0.1544449830        0.2615459484       -8.6909458437
 O        -0.7734253548       -0.2874566281       -9.5848328053
 C         1.4082909500        0.2668589329       -8.7344497761
 C         1.8234769748       -1.1117215486       -8.2532455960
 O         1.9965705573       -1.2886566793       -7.0339623937
 C         2.0587099995       -2.3518761026       -9.2273552734
 C         2.5314593061       -3.6335794469       -8.5837768404
 C         2.9822483626       -4.7594370130       -9.5438485746
 O         2.3311162555       -5.0306953319      -10.5181837836
 C         4.1423652891       -5.6929444439       -9.0937634464
 C         4.3574087130       -7.0951366937       -9.8458914966
 O         3.6388936454       -7.4381513711      -10.7287361689
 C         5.5536050562       -8.0769569078       -9.4292906272
 C         4.8883625118       -9.1510098755       -8.6436917003
 C         4.9927818119       -9.0565854185       -7.0953349425
 O         5.8117513963       -8.3197793216       -6.6151338945
 C         3.9074536640       -9.9402435940       -6.2199752475
 C         2.5314603232      -10.3067341108       -6.9054809764
 O         2.3870410539      -11.4132304547       -7.4022182673
 C         1.3308458030       -9.3357644686       -6.7372574037
 C         0.1766023456       -9.6707091039       -7.7071881333
 C         0.0067900487       -8.6981810452       -8.8040375481
 O         0.7599742480       -7.7349679600       -8.8714309502
 C        -1.1421614556       -8.9586811624       -9.8200230351
 C        -0.3505667208       -9.4255186517      -11.1414973748
 O         0.8448797850       -9.5569142180      -11.1661488158
 C        -1.0524369288       -9.3983782243      -12.5468757693
 C        -0.2175439954       -8.8443033407      -13.6742399998
 C        -0.1764371615       -7.3376748232      -13.7389266311
 O         0.2122017556       -6.7206539557      -12.7411905721
 C        -0.6835741644       -6.5240568089      -14.9336087391
 C        -1.9715222174       -5.8137134132      -14.4165050845
 O        -2.1470242714       -5.8450945490      -13.2072672938
 C        -2.8192642952       -5.2365860844      -15.4778431584
 C        -3.9596699905       -4.3181050040      -14.9591279024
 C        -5.1564210892       -5.0589934612      -14.2748624593
 O        -5.5517908038       -6.1330918037      -14.7085370565
 C        -5.9601113999       -4.2804421628      -13.4004524279
 C        -6.5241741658       -3.0674171105      -14.3039494795
 O        -5.7351904511       -2.1477890549      -14.5076271742
 C        -7.9143412707       -3.0925858156      -15.0576299559
 C        -8.4745865576       -1.7813552766      -15.5891609592
 C       -10.0299612840       -1.7571366702      -15.4458410268
 O       -10.5269265910       -2.6181244925      -14.7851846366
 C       -10.8687694624       -0.7079758256      -16.2760041932
 C       -10.2545812083        0.6913195343      -16.3160806452
 O        -9.4142072560        1.0656215611      -15.4760935890
 C       -10.8657281952        1.5407488530      -17.4366850191
 C       -10.7453299063       -1.3320828176      -17.6904232135
 C       -12.3452482845       -0.6161055975      -15.7953074059
 C        -7.2750177283       -5.0007464769      -12.9057687857
 C        -5.1607543352       -3.6265819501      -12.1803133617
 C         0.3664454269       -5.3719554177      -15.2783919877
 C        -0.9055177127       -7.3718177179      -16.2365525913
 C        -2.1494438463      -10.0443278066       -9.4836125827
 C        -1.7887959404       -7.5962639429      -10.1135270254
 C         4.6137864944      -11.1827823467       -5.6664385020
 C         3.7118315638       -9.0484652973       -5.0261494625
 C         5.5002722477       -5.0374348601       -9.1511113885
 C         3.8752229697       -6.0128722968       -7.5898332390
 C         1.9047096278        0.4488242122      -10.1341544555
 C         2.1420379113        1.4243922797       -7.8875417016
 C        -4.7829575922        2.3157541359       -5.2354368498
 C        -4.1871309265       -0.1430461993       -5.1045512422
 C       -10.9405951324        2.3614416971       -5.3809474968
 C       -11.1366950452        1.4272332764       -7.7009782618
 C        -5.7413753628        8.2076195443       -5.2334136077
 C        -6.7174141777        8.2320040280       -7.4972391264
 C        -0.4391430787        4.9025039988      -10.3397319839
 C        -1.2281125585        7.2685749705      -10.5764298124
 C        -6.9558785003        3.5011342415      -14.0793806816
 C        -7.7613501263        3.0975289898      -11.6986208300
 H        -5.6568346870        0.4236102276      -13.9407888521
 H        -4.1825147224        0.7806151826      -13.2863299844
 H        -4.8727649035        1.8359021599      -14.5179882758
 H        -4.6335923421        4.9801452929      -13.8580934397
 H        -3.8644569950        3.8678142131      -12.8388489660
 H        -3.7391081282        6.7788305434      -11.9618656504
 H        -2.5067062423        5.9637135284      -12.8126034249
 H        -3.5205541774        7.4368579618       -8.7295151818
 H        -2.0094167496        7.7415220457       -7.9324752006
 H        -3.6785243185        7.6482473496       -6.2105122839
 H        -3.1094654962        5.9064155198       -6.2113268969
 H        -8.1968521921        5.8145284008       -7.7544212887
 H        -9.1408660380        7.0461941191       -6.8844476907
 H       -10.3271471843        5.0955209286       -5.7346489490
 H        -8.9138605036        4.4214624716       -5.2913404240
 H        -8.3007329570        0.1785142552       -7.9823000273
 H        -9.1203445336       -0.7810069042       -6.6136597897
 H        -6.6432102431       -1.2759472096       -6.7647593165
 H        -7.0550655950       -0.3724741021       -5.2994196583
 H        -2.4500470970       -0.1288985335       -8.4262862548
 H        -2.2871275779       -0.5394369527       -6.7104595971
 H        -0.0374037892        0.9488949153       -6.8931015805
 H        -1.1419885012        1.9439116004       -8.0597482140
 H         2.7654737170       -2.0468075250       -9.9700761001
 H         1.1082929068       -2.3259253565       -9.8642096851
 H         1.5978897276       -3.9876522458       -8.0126937699
 H         3.3087428491       -3.4735904861       -7.8019635345
 H         6.3942936881       -7.5610912842       -8.9664363176
 H         6.0832197940       -8.3906995701      -10.3749951900
 H         5.1376572334      -10.2063661355       -8.8196151571
 H         3.8467915535       -9.1141940179       -9.0098601925
 H         1.6188808489       -8.1849852686       -6.7898083381
 H         0.8991738507       -9.6763451181       -5.7160768157
 H        -0.8068343433       -9.7055101419       -7.1975589249
 H         0.2714295858      -10.6881830288       -8.2412206374
 H        -1.9074284583       -8.7401329498      -12.4978217001
 H        -1.4506094718      -10.4102348068      -12.7023892131
 H        -0.4895430140       -9.2432817047      -14.5181909898
 H         0.8471087209       -9.2746717453      -13.5298643642
 H        -3.3564048126       -6.0050436627      -16.1312281940
 H        -2.2830372429       -4.6473229016      -16.2791604137
 H        -4.5014787169       -3.6962545046      -15.7671622674
 H        -3.6583482737       -3.5997315313      -14.2699922965
 H        -8.6186547899       -3.6544412427      -14.3746800536
 H        -7.7423643254       -3.8102858849      -15.9357411954
 H        -8.0945606753       -1.4979675030      -16.6021155394
 H        -8.0503399262       -1.0044287927      -14.9169568757
 H       -10.1469236949        2.1842028886      -17.8955371260
 H       -11.6989395135        2.0722803033      -17.0127925670
 H       -11.2132952985        0.9312342247      -18.2940385457
 H        -9.7318828268       -1.4938365945      -18.0086878046
 H       -11.3578721897       -0.9407536893      -18.5223660704
 H       -11.0473806275       -2.3527362000      -17.5879440786
 H       -12.5064030053       -0.1826613054      -14.7597186338
 H       -12.7187994424       -1.6589969663      -15.7031693517
 H       -12.8713692282        0.0236308478      -16.4452264437
 H        -8.0130647204       -4.3006495896      -12.7390619183
 H        -7.1169819459       -5.4366433448      -11.8895676485
 H        -7.5006075882       -5.8609843430      -13.4702372491
 H        -4.2636417600       -3.1395026404      -12.5580375779
 H        -4.7996933243       -4.4380993546      -11.6076698799
 H        -5.8484052073       -2.9263456402      -11.6340861138
 H         0.1184642070       -4.6857975849      -16.0852367484
 H         1.3287386573       -5.8792946898      -15.5322535070
 H         0.5367283485       -4.7794555853      -14.3219778520
 H        -1.2096991090       -6.6188776912      -16.9865820690
 H        -1.6703639137       -8.1693077469      -16.0600429805
 H         0.0298102952       -7.7624238746      -16.5246873323
 H        -2.9023527190      -10.1190612845      -10.3565441098
 H        -2.8707527024       -9.8281672779       -8.6962017084
 H        -1.6323594432      -10.9820710707       -9.3515851205
 H        -1.9486468884       -7.5185829920      -11.2014160602
 H        -1.0782820821       -6.7931525329       -9.8771746054
 H        -2.7743257203       -7.4593538515       -9.5843033017
 H         4.2523705288      -12.1327914683       -6.0258177328
 H         4.7179805411      -11.1558771025       -4.5785085473
 H         5.6608906142      -11.1401891345       -6.0162838567
 H         4.6922974868       -8.8312278477       -4.5728057534
 H         3.0537691387       -9.4112032392       -4.2675899537
 H         3.2157848722       -8.0933131161       -5.2858265633
 H         6.1720165466       -5.6012766170       -8.5253046598
 H         5.6388689231       -4.0332429210       -8.7544460591
 H         6.0496247749       -5.0943312919      -10.1317164726
 H         2.9104761151       -6.6063639692       -7.5406102807
 H         3.8259748728       -5.1209543804       -6.9708202188
 H         4.7291600182       -6.4499456766       -7.2543528915
 H         1.3736198198       -0.1632291934      -10.7797032768
 H         2.9417934600        0.3175349321      -10.2633930284
 H         1.6016057375        1.4556310538      -10.4287690463
 H         3.0592846185        1.7501714265       -8.3878494450
 H         2.2135878398        1.0007334605       -6.8632629986
 H         1.4809195570        2.3284895505       -7.8790757004
 H        -5.7128981572        2.1381246462       -4.6414011689
 H        -4.9867511431        3.0579574407       -5.9968536044
 H        -3.8977086302        2.5042120642       -4.6179574388
 H        -4.7432822848       -0.0378792948       -4.1552744105
 H        -3.1188686452        0.0410098491       -4.9150776688
 H        -4.2174280525       -1.1047819450       -5.6026943521
 H       -11.7977786526        3.0484640114       -5.4086740582
 H       -10.2535971752        2.6422766299       -4.6481806640
 H       -11.2862142999        1.3761320569       -5.1844270215
 H       -11.7156255919        2.1381311603       -8.2811149034
 H       -11.9258713781        0.8675668938       -7.1951445275
 H       -10.6027671222        0.7482536961       -8.4131545624
 H        -6.5402624692        8.8594151206       -4.9822184697
 H        -5.0254965515        9.0022298328       -5.5968291595
 H        -5.3010065124        7.7008079482       -4.3455720368
 H        -7.3337532363        7.7252242222       -8.2407510102
 H        -5.8245867350        8.7074111401       -7.9160260359
 H        -7.2281991439        9.1081403267       -7.1300130464
 H         0.4505141527        5.4215878458      -10.1940198431
 H        -0.3599636638        4.5335194048      -11.3815318683
 H        -0.5007919779        4.0578146140       -9.6938482936
 H        -1.8802056495        8.0106630208      -10.2361408254
 H        -1.1779708281        7.3302192879      -11.6689759283
 H        -0.2740539469        7.5903538643      -10.2149509368
 H        -6.0439320243        3.6253383705      -14.6812603463
 H        -7.2430894291        4.5418518840      -14.0127788511
 H        -7.8450880744        2.9779837100      -14.4200261966
 H        -8.3138388196        4.0278178403      -11.7991920241
 H        -7.4298965922        2.8342363099      -10.7673798190
 H        -8.4040180843        2.2623643262      -12.0015604576
 Na       -5.2423479453        3.3072113070       -9.0477517322
 Na        1.2648459288       -7.1815880293      -10.7809302100
