232

 C        -5.0654001476        1.1940995706      -13.4879099593
 C        -5.5732712806        1.8808973388      -12.2860442251
 O        -5.2058258032        1.6728774560      -11.1586586748
 C        -6.5296956113        3.1138791103      -12.5308677999
 C        -5.7360070554        4.4710617319      -12.0939706748
 O        -5.9009006897        5.1883323827      -11.1471690986
 C        -4.4239030090        4.7125263963      -12.8876240119
 C        -3.4451928253        5.7686894255      -12.2317940205
 C        -2.8298661007        5.2556440401      -10.8715657482
 O        -3.3631255404        4.4164003440      -10.1318279997
 C        -1.5385628699        5.8697720299      -10.2242760851
 C        -1.9303265609        5.9226147398       -8.6340897660
 O        -1.5167950576        5.1493981550       -7.8211623622
 C        -2.9815157123        6.9220436557       -8.2218443761
 C        -3.5042081785        6.5989248248       -6.8281945755
 C        -5.0670550116        6.4495626340       -7.0366690219
 O        -5.4323521522        5.4526197448       -7.6760106694
 C        -6.1793607837        7.3725480471       -6.4462724841
 C        -7.3119675744        6.3269609967       -5.9333033456
 O        -7.2314676689        5.9206232232       -4.8110007769
 C        -8.4728623240        5.9086670807       -6.8725438265
 C        -9.3930866715        4.7954422913       -6.2874887914
 C        -9.6561022392        3.5851460491       -7.3065670773
 O        -9.3426856942        3.5986849674       -8.4916069410
 C       -10.1211781943        2.2522656991       -6.7466522979
 C        -8.8153450234        1.4685550112       -6.2327785753
 O        -8.1335391592        1.9663438796       -5.3432060173
 C        -8.3589581609        0.1985210819       -6.9337101600
 C        -6.8237765756       -0.1622660267       -6.4609336068
 C        -5.8253287726        0.9120814551       -7.0810519277
 O        -5.9585457504        1.3554021474       -8.1923040475
 C        -4.6445191079        1.1346288948       -6.1370400518
 C        -3.3429719276        1.4054160180       -7.0249535625
 O        -3.3224207350        2.4363340033       -7.6909034043
 C        -2.2736740674        0.3211470106       -7.4893565667
 C        -0.8594366888        0.8482546561       -7.5820526982
 C        -0.0108614693        0.1835281308       -8.8348750001
 O        -0.6045250341       -0.2984156434       -9.7806647035
 C         1.5402701463        0.1676857927       -8.7460132144
 C         2.0234929117       -1.2474779420       -8.2348733819
 O         2.3111903895       -1.4017669815       -7.0945693875
 C         2.0504796228       -2.4434691043       -9.2597241809
 C         2.4484533591       -3.7717267461       -8.5327099225
 C         2.9594492001       -4.7834801431       -9.5139883634
 O         2.4921864126       -4.8813898571      -10.6557973704
 C         4.0608670776       -5.6586212990       -9.0007567906
 C         4.2381020004       -7.0220509723       -9.8115796488
 O         3.6686819981       -7.2265200213      -10.8827736068
 C         5.3517148020       -8.0725646142       -9.3684005270
 C         4.6906916316       -9.4050797785       -8.6656481110
 C         4.7396157146       -9.1482118271       -7.1935298050
 O         5.6912271714       -8.5260552154       -6.7693871349
 C         3.8579229361       -9.9631740309       -6.0453757886
 C         2.5447314716      -10.2710802976       -6.7688736010
 O         2.5382518297      -11.2359201718       -7.4970232681
 C         1.3498108490       -9.3000956213       -6.6572751282
 C         0.1967947346       -9.6889515596       -7.5736086757
 C        -0.1772375413       -8.6492679828       -8.6217376460
 O         0.4595623670       -7.6038855747       -8.5068014729
 C        -1.1150326363       -8.7649112031       -9.8341314279
 C        -0.3724053861       -9.4192419231      -11.1189653510
 O         0.8231339713       -9.7164909839      -11.0227569081
 C        -1.0673540573       -9.5951583799      -12.4796302387
 C        -0.1176927536       -8.9671629220      -13.5504478735
 C        -0.1795291208       -7.5058077685      -13.5230384569
 O         0.1467722831       -6.9051150476      -12.5379216324
 C        -0.6514612845       -6.5803164223      -14.7313818130
 C        -2.0100330846       -5.8599531687      -14.2622336669
 O        -2.1992973530       -5.6540999460      -13.0877462928
 C        -2.9046183993       -5.2656882058      -15.3836629347
 C        -3.9428290317       -4.3602726603      -14.7830594972
 C        -5.2820791159       -5.0543982624      -14.4466738518
 O        -5.6728781034       -6.0777741552      -14.9408721540
 C        -6.1703250210       -4.3119063388      -13.4411659940
 C        -6.5548848277       -2.9915358699      -14.3338187087
 O        -5.8180781341       -2.0583110711      -14.4806628469
 C        -7.9257587926       -3.0927290884      -15.0249733223
 C        -8.4575266773       -1.7397315658      -15.5035718433
 C        -9.9297763253       -1.7366069334      -15.4716895526
 O       -10.4852665937       -2.6044584095      -14.8246823600
 C       -10.7486835020       -0.7011216164      -16.3470355082
 C       -10.4194439856        0.8459051803      -16.1812634280
 O        -9.7470307580        1.1793792174      -15.2523096672
 C       -11.1020258208        1.9672921386      -17.0121916848
 C       -10.6938689134       -1.1852903626      -17.8259462879
 C       -12.1714840712       -0.9730908802      -15.8430396313
 C        -7.3618359968       -5.1330293688      -12.8308617307
 C        -5.4079468162       -3.8546635060      -12.1890899498
 C         0.3970809794       -5.4278835551      -15.0122723364
 C        -0.8567374367       -7.3966790686      -16.0592947507
 C        -2.1902056377       -9.8987554523       -9.5740302243
 C        -1.8998692550       -7.4157559784      -10.1033197589
 C         4.7456170151      -11.1755381466       -5.9138113916
 C         3.7269993238       -9.0488442748       -4.8476398790
 C         5.2486829633       -4.7365022921       -9.2406645169
 C         3.9977905086       -6.0974921611       -7.5737083280
 C         1.9497855748        0.3598585296      -10.2219029789
 C         2.0249053787        1.2933275277       -7.8656503743
 C        -4.9969586018        2.3753411630       -5.2944708738
 C        -4.3544941664       -0.1175608001       -5.1548627549
 C       -11.0717150677        2.4361442767       -5.5408448020
 C       -10.8902272653        1.5467004646       -7.8848738084
 C        -5.7293507506        8.1294302705       -5.1183365488
 C        -6.6516007139        8.3685689951       -7.5750733617
 C        -0.4068249732        4.8942461054      -10.4674522033
 C        -1.2549247314        7.2715852797      -10.8551170812
 C        -7.0619632756        3.2850831419      -13.9630654017
 C        -7.7014001263        3.0399680887      -11.5270995558
 H        -5.7700661302        0.4452306370      -13.8647947062
 H        -4.1444313225        0.6223239129      -13.4238986409
 H        -5.0802456321        1.8465884194      -14.3231482501
 H        -4.5909037748        4.9412230517      -13.9530368219
 H        -3.9849093082        3.7177634563      -12.9452462441
 H        -3.7379346433        6.8498874151      -12.1517227874
 H        -2.5420722359        5.7076234686      -12.9165083892
 H        -3.7616380493        7.1060543148       -8.9471892129
 H        -2.3690387367        7.9157637265       -8.1245778929
 H        -3.2102889673        7.4303899839       -6.1331690828
 H        -3.1547746837        5.5868922681       -6.5426454153
 H        -7.9792596003        5.4623552787       -7.7503214363
 H        -8.9740466028        6.7466594690       -7.3093591088
 H       -10.3213291828        5.2077728967       -5.7526119764
 H        -8.9128093845        4.5927715106       -5.3953397495
 H        -8.2517268258        0.2157539549       -7.9903572115
 H        -8.9796997025       -0.6202391231       -6.6800832626
 H        -6.6310673901       -1.2069643012       -6.6524475605
 H        -6.8378142833       -0.1093209823       -5.3347510011
 H        -2.6428109315       -0.1234664207       -8.3642841705
 H        -2.0948639396       -0.5456919052       -6.8219718379
 H        -0.3061946053        0.7579562578       -6.7166556526
 H        -0.8494340240        1.8548443073       -8.0177427673
 H         2.8914493449       -2.3051820490      -10.0161084533
 H         1.2378810174       -2.3356737622       -9.9088596581
 H         1.5371507475       -4.1106329740       -8.1510630575
 H         3.1079927932       -3.6823429844       -7.7127430807
 H         6.0880097412       -7.5447878838       -8.7676726269
 H         5.9940301667       -8.2694124878      -10.1793894114
 H         5.2162606475      -10.3389469743       -8.9672149683
 H         3.6503145710       -9.5925977628       -8.9890197928
 H         1.5918955122       -8.2974569714       -6.7425798063
 H         0.8393043797       -9.4743303740       -5.7421291110
 H        -0.7316667403       -9.7711753787       -6.9846398647
 H         0.4179852019      -10.6889627421       -7.9114756718
 H        -2.0479769394       -9.0726218484      -12.4766532525
 H        -1.1964647470      -10.6735088991      -12.6413520585
 H        -0.5424842399       -9.3692486133      -14.6048911949
 H         0.8298456071       -9.4748137855      -13.5407331454
 H        -3.3751274509       -5.9388210938      -16.0377315038
 H        -2.4055440978       -4.6362402504      -16.0633614105
 H        -4.2037758830       -3.5374716340      -15.3689651046
 H        -3.5561521206       -3.9573758554      -13.7735002258
 H        -8.5748535342       -3.6186057853      -14.3709913309
 H        -7.7943404860       -3.7122039660      -15.8832018816
 H        -8.1471609932       -1.4336425232      -16.5205333963
 H        -8.0106314110       -0.9258745774      -14.9625363614
 H       -10.4154608058        2.8529397307      -17.0546003022
 H       -12.0307918225        2.2027464962      -16.4847652697
 H       -11.3741487496        1.6723039354      -18.0052501167
 H        -9.7495098522       -0.8954308704      -18.3750090663
 H       -11.5607082335       -0.7831022489      -18.3503130368
 H       -10.6596507533       -2.2985465465      -18.0164392768
 H       -12.2570705569       -0.9019813387      -14.7782157869
 H       -12.3507996532       -2.0256035923      -15.9551707702
 H       -12.9212805689       -0.2966210709      -16.3211696285
 H        -7.8763596392       -4.4419157589      -12.0529261019
 H        -7.0686823044       -6.0664326343      -12.4348287732
 H        -8.0922670704       -5.4614168323      -13.5991464057
 H        -4.9274701733       -2.9238042811      -12.4688545162
 H        -4.5754151837       -4.5136478083      -11.8939522693
 H        -6.1703840425       -3.6767468919      -11.5151065518
 H         0.0351654092       -5.0218938204      -15.9938699941
 H         1.4130623092       -5.7379076171      -15.2196835130
 H         0.3776466417       -4.6227034451      -14.2940008227
 H        -0.9835072948       -6.7491323526      -16.8946401374
 H        -1.6652810888       -8.0366071365      -15.9190338351
 H         0.0700672282       -8.0028551058      -16.1861477611
 H        -2.9999977187       -9.7570213267      -10.2496198600
 H        -2.6114941856       -9.8729289802       -8.5568443659
 H        -1.7224640102      -10.8907676493       -9.7010048450
 H        -2.1256001096       -7.3427978536      -11.1872191929
 H        -1.2896168202       -6.5385280340       -9.8193382149
 H        -2.8407621336       -7.4625728765       -9.5486777970
 H         5.0971984486      -11.5021538318       -6.8690011676
 H         4.1889665649      -11.8878616709       -5.3803838506
 H         5.5944741345      -11.0247360369       -5.3007134244
 H         4.7553150385       -9.0085979645       -4.4639222464
 H         3.2009573153       -9.5226259993       -3.9806824294
 H         3.2001085607       -8.0958197785       -4.9081250677
 H         6.2540680092       -5.2052816961       -9.1616380259
 H         5.2721985544       -3.9371683476       -8.4868414826
 H         5.3118493262       -4.2731990087      -10.1800083379
 H         3.3919842819       -6.9539339581       -7.5255722258
 H         3.5898521974       -5.3567936142       -6.8561885481
 H         5.1052184719       -6.1738155377       -7.3029733787
 H         1.4907112843       -0.4194851391      -10.9041396396
 H         3.0702014049        0.1330734316      -10.3390228406
 H         1.7584783289        1.3713513273      -10.5727211336
 H         3.1413033348        1.1062723861       -7.7129809873
 H         1.4967575056        1.3263897753       -6.9030627021
 H         1.8687750797        2.1705292247       -8.4368604613
 H        -6.0364285263        2.5076049227       -5.1875909203
 H        -4.6026801749        3.2388986389       -5.8289827023
 H        -4.5125781801        2.1124892998       -4.3622785006
 H        -5.2228735109       -0.2524847912       -4.5215122027
 H        -3.5605888022        0.0733263230       -4.4221048866
 H        -4.0446166035       -0.8947368321       -5.8659890812
 H       -11.9510714633        2.8332567916       -5.9844492781
 H       -10.6240293451        3.1804958916       -4.8555611850
 H       -11.3072613137        1.5090307290       -4.9835111572
 H       -11.8535709420        2.0295518718       -8.0631610768
 H       -11.0912142502        0.4906627807       -7.6574689061
 H       -10.3980983252        1.5924889299       -8.8367046384
 H        -6.5970253750        8.4520652137       -4.5074369995
 H        -5.0478728751        8.9375778871       -5.2011814851
 H        -5.2267524598        7.3773351803       -4.5489624430
 H        -7.2232305432        7.8942446673       -8.3854324335
 H        -5.8276981553        8.8652176089       -8.0930920596
 H        -7.3046507526        9.1349705936       -7.2020641922
 H         0.6087354331        5.3125912178      -10.1613173240
 H        -0.2408756304        4.8638045818      -11.5563706082
 H        -0.5745827284        3.8257022319      -10.1340155205
 H        -2.0908278460        7.8877228742      -11.2513994028
 H        -0.6056073517        7.0642721295      -11.7180689564
 H        -0.7598307050        7.9950109909      -10.1930959683
 H        -6.2714244096        3.7233370758      -14.5507771742
 H        -7.9447871588        3.9618009988      -13.9903103691
 H        -7.5279000833        2.3344435232      -14.2681836438
 H        -8.4901847418        3.5689702797      -12.0984618447
 H        -7.2978159180        3.6399279756      -10.6058191121
 H        -8.0220102692        2.1058254734      -11.0240739518
 Na       -5.1063044807        3.4065490039       -9.3313804070
 Na        1.5966219669       -7.1734978703      -10.9268120270
