232

 C        -5.5321054349        0.5785021464      -12.4683057129
 C        -5.4789405593        1.7968917649      -11.6323663864
 O        -4.7152279082        1.7851831859      -10.6226230812
 C        -6.3783671944        2.9899161062      -12.0058196109
 C        -5.4843855018        4.2984502494      -11.8916361161
 O        -5.7412719243        5.0046400428      -10.9690244274
 C        -4.4637451445        4.8288251369      -12.9315695770
 C        -3.5819237499        5.9845306709      -12.4681955690
 C        -2.5589994877        5.4759906617      -11.3445532869
 O        -2.7171398957        4.4017099758      -10.8829891327
 C        -1.3632431508        6.2787864950      -10.9341620642
 C        -1.6275873398        6.4960232232       -9.3191256828
 O        -0.6941808233        6.4225326087       -8.5092623835
 C        -2.9596800994        7.0535113319       -8.8266443229
 C        -3.4381533923        6.2898931320       -7.6212537554
 C        -4.9850318118        6.1318891225       -7.5528041721
 O        -5.5526253769        5.2563377316       -8.2176229235
 C        -5.9452699289        7.0660064394       -6.7781994278
 C        -7.1296810736        6.1596495384       -6.2735616684
 O        -7.1326202378        5.9063137399       -5.0700044646
 C        -8.1963869785        5.6182628915       -7.1246253720
 C        -9.0626856290        4.4861579372       -6.3259537282
 C        -9.4530376472        3.3752466199       -7.2948842237
 O        -9.2258175174        3.4083508804       -8.4942360452
 C       -10.2502946038        2.0489489044       -6.7985794755
 C        -9.0922603029        1.1600567840       -6.2267219266
 O        -8.7122816215        1.1584136892       -5.0769348801
 C        -8.2476976315        0.5987963797       -7.3652656852
 C        -6.8181528072        0.1489418554       -6.9310921451
 C        -5.8227342803        1.2407439708       -7.2155793212
 O        -6.0380989414        2.1603073256       -7.9950443384
 C        -4.4594945397        1.3459808991       -6.5033362534
 C        -3.3700595384        1.4418250754       -7.6151259740
 O        -3.1344945651        2.5096200847       -8.1477486710
 C        -2.4477737683        0.2762034443       -7.9940631785
 C        -1.0140059619        0.6993592824       -7.9610439921
 C        -0.0660379622       -0.0336381916       -8.8868617956
 O        -0.5037818149       -0.9457368427       -9.5859693073
 C         1.5385739614        0.1867790583       -8.7998484772
 C         2.1878567819       -1.0770693173       -8.2756995656
 O         2.8399217638       -1.1085241404       -7.2249772031
 C         1.9624095539       -2.4091157942       -9.0208306773
 C         2.6382924486       -3.5874141114       -8.2173117386
 C         3.0057827176       -4.7519044016       -9.1725267168
 O         2.3127378126       -4.9771881759      -10.1708693053
 C         4.3814404308       -5.5008755977       -8.8712738228
 C         4.4847475347       -6.8438631903       -9.8349599820
 O         3.9160152817       -7.0022579146      -10.8684792415
 C         5.3561771274       -8.0889827998       -9.2462073123
 C         4.3126965142       -9.0341245450       -8.4260055030
 C         4.6526957368       -9.3054596518       -6.9531598925
 O         5.5582076462       -8.7080623539       -6.4354382145
 C         3.6729227474      -10.3454835343       -6.1844739182
 C         2.2204097183      -10.2349601582       -6.7346274207
 O         1.9264562163      -10.9677503710       -7.6709379302
 C         1.2859369843       -9.3351834045       -6.0657663721
 C        -0.0814434284       -9.2401641583       -6.7684787620
 C         0.0934765084       -8.6431887289       -8.2529104986
 O         1.0735943240       -7.9378977871       -8.5393606739
 C        -1.0213645357       -8.8620533060       -9.4098032245
 C        -0.3541314865       -9.3630936122      -10.7630930457
 O         0.8257685837       -9.7114794689      -10.8377260119
 C        -1.2870156783       -9.6853370825      -11.9785911151
 C        -0.6590069598       -9.2541688272      -13.3374704318
 C        -0.3221668811       -7.7078975471      -13.4254188038
 O         0.1287295594       -7.1480501070      -12.4247557701
 C        -0.7183335913       -6.8322325748      -14.5520737658
 C        -2.1683680556       -5.9726670291      -14.1789168040
 O        -2.6197744710       -5.9952690266      -13.0425403681
 C        -2.8745498678       -5.1418200907      -15.2525882918
 C        -3.9443264311       -4.1279524309      -14.7034865228
 C        -5.3582675920       -4.8813801194      -14.5440904309
 O        -5.6667610597       -5.7362043993      -15.3549238499
 C        -6.4780158057       -4.4832897915      -13.4909253653
 C        -7.1906731320       -3.2361472389      -14.0771574031
 O        -6.7514215541       -2.1475833544      -13.7029089942
 C        -8.2001866957       -3.2223148124      -15.3305994811
 C        -8.6750699681       -1.8019885405      -15.6646662686
 C       -10.2461519411       -1.5112733069      -15.5653606797
 O       -10.9829944502       -2.3572498620      -15.1062465666
 C       -10.8970621980       -0.1850569351      -16.2728131015
 C       -10.8634053498        0.9954444373      -15.2535960651
 O        -9.8069348633        1.1628155368      -14.6218899039
 C       -12.0866869083        1.8531531470      -15.0673603903
 C       -10.0416992041        0.3248486851      -17.4726946563
 C       -12.2661565089       -0.5934730347      -16.7668808456
 C        -7.3635474195       -5.7142477718      -13.4044043089
 C        -5.7778199115       -4.0789660077      -12.1653190361
 C         0.3877869403       -5.8138588766      -14.9138871245
 C        -1.1141397207       -7.5929730905      -15.8327385321
 C        -2.0299166183      -10.0610589369       -8.9792768155
 C        -1.8751139528       -7.5360098945       -9.6351631197
 C         4.1655583200      -11.7185302936       -6.6021299809
 C         3.9706694223      -10.0857553423       -4.7315049411
 C         5.5967220529       -4.7443543649       -9.5363731602
 C         4.6192856508       -5.7735681539       -7.2872850815
 C         2.0156964414        0.3299480075      -10.3419482032
 C         1.7900053644        1.6143595363       -8.0020027667
 C        -4.5483554328        2.7223563511       -5.6690471774
 C        -4.2268102615        0.1744430604       -5.4217217401
 C       -11.3598444554        2.4428279888       -5.8672406604
 C       -10.7763980053        1.3393005627       -8.1037519062
 C        -5.3290479751        7.6507791191       -5.5664877371
 C        -6.5308928046        8.2513235109       -7.6542721438
 C        -0.0543035718        5.5408775909      -11.1659630422
 C        -1.2926723996        7.6594518721      -11.6430914137
 C        -6.9422551853        2.8944424099      -13.3910228459
 C        -7.5210414403        2.9782426947      -10.9997750059
 H        -6.5253803078        0.1477827876      -12.3333288513
 H        -4.7964835745       -0.2222126227      -12.3402982273
 H        -5.5996296921        0.7074024943      -13.5817436743
 H        -5.2088264931        5.2018071763      -13.6542297415
 H        -3.9762709931        3.9597427410      -13.2452169549
 H        -4.2212092695        6.8108252404      -12.1951091172
 H        -2.9562790476        6.3001332581      -13.2672786678
 H        -3.6105436620        7.1325868168       -9.6078609264
 H        -2.7546648369        8.0832965617       -8.5701636599
 H        -3.0618677493        6.6735112175       -6.6514387372
 H        -3.0775366203        5.2417606952       -7.4625953336
 H        -7.8129640859        5.3039013688       -8.1523078205
 H        -8.9813542277        6.2706948030       -7.5292974421
 H       -10.0028269224        5.0594475758       -6.0965183555
 H        -8.6266040960        4.1425354029       -5.3901763983
 H        -8.0542095794        1.1573634152       -8.3037696028
 H        -8.7444093875       -0.2966937533       -7.8129843270
 H        -6.6991874519       -0.8216344585       -7.4034482491
 H        -6.8642900883       -0.1715571918       -5.8747524456
 H        -2.6831488092       -0.0641235217       -9.0654313263
 H        -2.6201088319       -0.5992920065       -7.3042339966
 H        -0.8105346623        0.8449839922       -6.9219899597
 H        -0.8425766668        1.7031377749       -8.3516085215
 H         2.3382116328       -2.2616437511      -10.0574017032
 H         0.9064811922       -2.7181586239       -9.0156529568
 H         2.0435708869       -4.0964295898       -7.4141570543
 H         3.5182242075       -3.1145568996       -7.6835968369
 H         6.1660533490       -7.6780441392       -8.5895368370
 H         5.7689804954       -8.7415173014      -10.0297873032
 H         4.3891836024       -9.9814719228       -8.9464262511
 H         3.2767172733       -8.6771535977       -8.6411316526
 H         1.8572758932       -8.3374215712       -5.9982310400
 H         0.9912109166       -9.5334799106       -4.9952189205
 H        -0.9362347133       -8.6599615974       -6.2840803792
 H        -0.5606919234      -10.2289997793       -6.8939656962
 H        -2.2518364574       -9.3152089957      -11.7448667199
 H        -1.2811464714      -10.7607004112      -11.7632051572
 H        -1.0171965005       -9.6813993201      -14.1613850322
 H         0.4266788136       -9.7512078132      -13.4019178110
 H        -3.5299124505       -5.9151154896      -15.8512180636
 H        -2.2126322029       -4.6688386005      -16.0153283151
 H        -4.1486543190       -3.3583864291      -15.4482834531
 H        -3.5343853261       -3.7374292621      -13.7177654821
 H        -9.0281172231       -3.9417237537      -14.9918689401
 H        -7.6388181035       -3.6577417499      -16.2098713597
 H        -8.3441158051       -1.5375459150      -16.7132960484
 H        -8.1707202172       -1.1481144033      -15.0404670817
 H       -11.9200183118        2.5071019141      -14.2116635422
 H       -12.9934465330        1.3187621896      -14.8597903908
 H       -12.2902307356        2.2919695061      -16.0537158905
 H        -9.1119426303        0.8331885864      -17.1877752982
 H       -10.4652662489        1.0815698312      -18.0921605733
 H        -9.8049393263       -0.4023556789      -18.1834352345
 H       -12.9776528935       -0.8359265092      -15.9160852629
 H       -12.2173453764       -1.4402336758      -17.4533686017
 H       -12.7951687210        0.0942102770      -17.3478532884
 H        -8.2629323376       -5.6283976147      -12.8034710637
 H        -6.7933558539       -6.5377869858      -13.0319570591
 H        -7.7596689102       -5.8673935209      -14.3714086868
 H        -5.7028521962       -2.9716499711      -12.2110774487
 H        -4.9515816604       -4.6888999371      -11.8746069792
 H        -6.5017407304       -4.2984522155      -11.3830845048
 H        -0.0362730963       -5.2007818864      -15.6950474289
 H         1.2512772705       -6.3457831042      -15.2679044878
 H         0.6481015040       -5.1781281069      -14.0510428307
 H        -1.3620013526       -6.9215878783      -16.6977801689
 H        -1.9653107513       -8.2359251445      -15.6214003251
 H        -0.2829499150       -8.2345193542      -16.2100727420
 H        -2.6898125634      -10.2721522123       -9.8629309670
 H        -2.5670711176       -9.7167726491       -8.0902234636
 H        -1.4397361168      -10.9693729781       -8.8376936008
 H        -2.0249924624       -7.4407759997      -10.6905277306
 H        -1.3104250735       -6.7169044704       -9.3270910508
 H        -2.8236578586       -7.6311969414       -9.1416912176
 H         4.6402768211      -12.1685601417       -5.7168264776
 H         4.9656561892      -11.7252245120       -7.3715862603
 H         3.2306190502      -12.3291959688       -6.7888730417
 H         4.9995358089       -9.7465209294       -4.5548678324
 H         3.8803706347      -10.9911518509       -4.2433426498
 H         3.4270656514       -9.3306883359       -4.2255834045
 H         6.3931440382       -5.4787926509       -9.6512593475
 H         6.0703860258       -3.9481469546       -8.9555369713
 H         5.4469038329       -4.2494262723      -10.4820132112
 H         3.8262180573       -6.4309836763       -6.9378037082
 H         4.6851515487       -4.7604808943       -6.7746859253
 H         5.4914069353       -6.3463270618       -7.1795465735
 H         1.5402410586       -0.3600762577      -10.9453780389
 H         3.0866550801        0.2453882707      -10.4823307061
 H         1.7260455138        1.2699053727      -10.8057714150
 H         2.8443092728        1.6816488948       -7.6403064396
 H         1.0586900478        1.5823844033       -7.1498437173
 H         1.5910587832        2.4687277643       -8.6498537819
 H        -5.5923041495        2.7949076794       -5.3428432918
 H        -4.2054468694        3.5195010424       -6.3263064584
 H        -3.8658891867        2.5383240388       -4.8217354385
 H        -4.9632475151        0.3578803220       -4.6676070101
 H        -3.1701167303       -0.0224986515       -5.2075597131
 H        -4.6805043563       -0.6295482497       -5.8892857784
 H       -12.1723624457        2.9587622301       -6.3864248274
 H       -10.9870638480        3.0440731898       -5.0641080428
 H       -11.8010610838        1.5040149159       -5.4376161402
 H       -11.8000380911        1.5984143281       -8.3630486050
 H       -10.7645312828        0.2063114904       -8.1159389790
 H       -10.1488400658        1.6551775246       -8.9345257649
 H        -6.0907483788        8.2233497688       -5.0878540960
 H        -4.3982218822        8.2510624232       -5.7320830971
 H        -5.0873952364        6.8023000935       -4.8628591547
 H        -7.0312021788        8.0013946642       -8.5591982533
 H        -5.7612262711        9.0231689256       -8.0130963522
 H        -7.2567020648        8.8351639762       -7.1099919312
 H         0.6828825264        6.0612166697      -10.6965240880
 H         0.1228602872        5.5389847630      -12.2289444825
 H        -0.0057424094        4.5459999119      -10.8097711351
 H        -2.2451781961        8.0375921269      -11.8398015178
 H        -0.7716050803        7.5536025678      -12.6366416634
 H        -0.6854102843        8.3317060805      -11.1292167707
 H        -6.1810161686        2.7517786958      -14.1534825045
 H        -7.5563064737        3.7470192751      -13.6539700869
 H        -7.4749943968        1.9797082149      -13.5078362232
 H        -8.0826493699        3.9097159182      -11.0476188572
 H        -7.1386050416        3.0760471086      -10.0281658870
 H        -8.2355202262        2.1706814694      -11.0781617444
 Na       -4.7279382747        3.6852670824       -9.3165755187
 Na        1.6498425050       -7.2992671918      -10.7423690911
