232

 C        -5.9232255266        0.4928910288      -12.6931291549
 C        -5.6311909272        1.6760264494      -11.8326895845
 O        -4.7112855303        1.5622294085      -10.9487931421
 C        -6.2984445123        3.0006124441      -12.3004599989
 C        -5.3720483937        4.2136778468      -12.0963645838
 O        -5.5427339725        4.9167643378      -11.1095080816
 C        -4.3433769468        4.4589537707      -13.1767190841
 C        -3.4452164058        5.6280361564      -12.8623897616
 C        -2.4611897545        5.4171316138      -11.6601084891
 O        -2.5012483702        4.3610326938      -11.1328587927
 C        -1.5105456006        6.6275231308      -11.2420269297
 C        -1.8646176340        6.9391310400       -9.6562989641
 O        -0.9980374291        6.9394947560       -8.7682925106
 C        -3.4116936609        6.9976674705       -9.1945975513
 C        -3.5311127458        6.4716800963       -7.7868153944
 C        -5.0298420148        6.0461786179       -7.5321614635
 O        -5.5855493742        5.2211940433       -8.2358037955
 C        -5.9379389135        7.0370879665       -6.6843925337
 C        -6.9915687319        6.1048545847       -5.9962240510
 O        -6.8245935307        5.7510439361       -4.8364032248
 C        -8.0942143916        5.6280131569       -6.8458654631
 C        -9.0271894225        4.4004314159       -6.3677886260
 C        -9.6028490336        3.5338455322       -7.4800618377
 O        -9.4203809196        3.5915401626       -8.6664774267
 C       -10.2699406202        2.2118502855       -6.9237975115
 C        -9.1374107616        1.1477519849       -6.4952603219
 O        -8.8522295815        1.0298205023       -5.3393434506
 C        -8.1610485579        0.5011648848       -7.5414199285
 C        -6.7687572849        0.3404061198       -6.9436528654
 C        -5.7603888747        1.4692128032       -7.2232530419
 O        -5.9723394082        2.3713228478       -7.9936760997
 C        -4.3638981137        1.4471836879       -6.2723426050
 C        -3.1774326896        1.5677542974       -7.3261445577
 O        -2.7845325182        2.6583075145       -7.6431553044
 C        -2.3222316949        0.3978424376       -7.8304579880
 C        -0.8378884335        0.6979807162       -7.8282561444
 C        -0.0675531388       -0.1207446081       -8.8369833650
 O        -0.5752691432       -0.9525914228       -9.5497612044
 C         1.5117645030        0.1311085842       -8.9710756517
 C         2.3471551600       -1.0397460960       -8.2801657844
 O         2.7726425672       -0.9026614265       -7.1765081474
 C         2.5948665232       -2.3431118492       -9.1350174965
 C         3.3827823564       -3.2951665867       -8.2131468285
 C         3.2628467015       -4.6614112461       -8.8181760069
 O         2.1825221837       -5.1901728418       -9.1264582107
 C         4.6214299828       -5.5351571493       -8.7963691702
 C         4.5582012077       -6.9654260414       -9.6176687953
 O         3.8959480901       -7.0540942494      -10.5942975220
 C         5.3864904230       -8.2523247253       -9.1842469660
 C         4.4131485314       -9.3711477036       -8.4700994289
 C         4.4290449185       -9.4940103486       -6.9501150363
 O         4.9179484662       -8.6205277289       -6.2776117848
 C         3.6364440051      -10.7020213433       -6.3410454898
 C         2.1351134384      -10.3872714623       -6.6804590240
 O         1.5755633898      -11.0959177338       -7.4951762926
 C         1.5194178922       -9.1888970072       -6.0189530231
 C         0.1241725596       -8.8722864781       -6.5526298654
 C         0.3155226546       -8.8081541771       -8.1286497362
 O         1.3299368763       -8.2499044072       -8.5000137221
 C        -0.8915158332       -9.0956977900       -9.2146480171
 C        -0.3473464985       -9.3453017560      -10.7206262560
 O         0.8005257599       -9.4721401544      -11.0216687857
 C        -1.5347523766       -9.2574176214      -11.7803120157
 C        -0.9402705559       -9.0149634374      -13.1051922191
 C        -0.5629372121       -7.6187494643      -13.2927897780
 O         0.1237137630       -6.9516680660      -12.5518140937
 C        -1.1062705360       -6.8301148308      -14.5474117658
 C        -2.3722705340       -5.9822567814      -14.1584091918
 O        -2.9104585565       -6.2913473132      -13.1337486320
 C        -2.9005698307       -4.8974420477      -15.0271159945
 C        -4.1719275593       -4.2020022182      -14.3950064679
 C        -5.5108073811       -4.8568676568      -14.6623387109
 O        -5.7600122369       -5.3684754394      -15.7363337250
 C        -6.6919790939       -4.5741748617      -13.6904641022
 C        -7.2588401468       -3.1879686062      -14.0494206249
 O        -6.5317397906       -2.2483979029      -13.7222195214
 C        -8.6237858679       -3.0636964783      -14.7283776445
 C        -8.7327057273       -1.8473013595      -15.5744622566
 C       -10.2367399881       -1.5373515863      -15.7731331087
 O       -11.1015726197       -2.3228430544      -15.3775483763
 C       -10.6104034978       -0.0598112627      -16.1854762792
 C       -10.7056482589        0.7197540915      -14.8540090960
 O        -9.6499703918        1.1251752481      -14.3473288215
 C       -12.0157154774        0.8604058869      -14.1059665502
 C        -9.5281332940        0.5063822602      -17.1079051561
 C       -11.9288036865       -0.2445680747      -16.9983373027
 C        -7.6886329168       -5.6906930828      -13.9173953060
 C        -6.2084771924       -4.4224864172      -12.2240284200
 C        -0.0093164320       -5.9081154584      -15.1876999872
 C        -1.5753869913       -7.7372843635      -15.6745516699
 C        -1.9304289162      -10.2523314708       -8.8507413532
 C        -1.4486764870       -7.5996645514       -9.2128279483
 C         4.0157962268      -12.1477729483       -6.8574578259
 C         3.7147533329      -10.6493604992       -4.7369005103
 C         5.5497698970       -4.7665355295       -9.6185077974
 C         5.1545089888       -5.8057590908       -7.3287347483
 C         1.8083195750        0.1503754266      -10.4321145459
 C         1.8121225294        1.5485594032       -8.4511614919
 C        -4.3296387188        2.7106802952       -5.3956837468
 C        -4.2488471364        0.1195178354       -5.4691618487
 C       -10.9349743370        2.5888817857       -5.6015757467
 C       -11.3041963548        1.7255984521       -8.0180294576
 C        -5.3020570970        7.8529809009       -5.5102187423
 C        -6.6339135980        8.1220830918       -7.5549429380
 C        -0.0236772836        6.1735316664      -11.3602292913
 C        -1.7360819747        7.9754320325      -12.0376236206
 C        -6.8735013764        2.9371247286      -13.7481330937
 C        -7.4955515177        3.0424719679      -11.2957445160
 H        -6.9504214911        0.3787791396      -13.0507213037
 H        -5.7065367724       -0.4792231281      -12.2545176746
 H        -5.2976619679        0.4776346334      -13.6451061961
 H        -4.8483720452        4.6699517749      -14.1663760114
 H        -3.8020033561        3.5320721610      -13.2258288311
 H        -3.9085045058        6.5741427225      -12.5644363492
 H        -3.0223217974        5.8418070140      -13.8128777235
 H        -3.8754423914        6.3747776405       -9.9024584909
 H        -3.7875541173        7.9989035789       -9.3771641408
 H        -3.3528949543        7.2345258350       -7.0284855813
 H        -2.8714238357        5.6233031392       -7.4962876376
 H        -7.6756415801        5.2844304278       -7.8504067659
 H        -8.7154857550        6.4962297000       -7.1080493494
 H        -9.9101657661        4.7575969893       -5.8465980226
 H        -8.3295265873        3.8267082231       -5.7242048796
 H        -8.2167592642        0.9038120778       -8.5783215748
 H        -8.5744879473       -0.5109806993       -7.7837132431
 H        -6.3374671957       -0.6052278375       -7.2624500316
 H        -7.1035897058        0.0955341062       -5.9285189577
 H        -2.5223398838        0.1917148830       -8.9552565192
 H        -2.6822560412       -0.4516796741       -7.2121619834
 H        -0.5306748127        0.6015652392       -6.7825768692
 H        -0.6092922973        1.7608745793       -7.9644765167
 H         3.0815422900       -2.0186573019      -10.0286700251
 H         1.6242266182       -2.8936186543       -9.2548448854
 H         2.8538767494       -3.3555070694       -7.2140070376
 H         4.3517396725       -2.7451938377       -8.0459856674
 H         6.1797311594       -8.1385239131       -8.4317358987
 H         5.7439215997       -8.7002421700      -10.1291264616
 H         4.6226862740      -10.3426426628       -8.8861771118
 H         3.3494856169       -9.1900517688       -8.7427707340
 H         2.1263313071       -8.1868053674       -6.2386326848
 H         1.6819221293       -9.3267772799       -4.8784036906
 H        -0.2387790304       -7.8339264883       -6.2887764626
 H        -0.6616233209       -9.5753459941       -6.3575961106
 H        -2.1895400652       -8.6089193234      -11.2810593413
 H        -2.0584158135      -10.2059282843      -11.8856823531
 H        -1.5660796300       -9.4483746583      -13.9076166605
 H         0.0520066723       -9.6072691896      -13.1590874391
 H        -3.1524760607       -5.2950555431      -16.0866345734
 H        -2.0824521550       -4.1694758650      -15.1682558538
 H        -4.2844108844       -3.1913533463      -14.8481630586
 H        -3.9420443007       -4.0634880404      -13.3239403570
 H        -9.4403767495       -2.9925587297      -14.0101886955
 H        -8.7567270379       -3.9778087849      -15.2878990825
 H        -8.1984869613       -2.0610162435      -16.5590453184
 H        -8.3086831249       -1.0664167320      -15.0616043278
 H       -11.9254041384        1.7222975978      -13.4408288659
 H       -12.2920195030        0.0120609704      -13.4787984232
 H       -12.9023843541        1.0455718209      -14.7974547010
 H        -8.5885308737        0.7870878593      -16.6358510680
 H        -9.7983357774        1.3586692806      -17.7260736389
 H        -9.1600111314       -0.1787731316      -17.8090079720
 H       -12.7893715374       -0.7542460172      -16.5323978652
 H       -11.7411352782       -0.8450274855      -17.8771371807
 H       -12.3574392147        0.6617351677      -17.2418558271
 H        -8.6747967545       -5.5449303929      -13.5570237439
 H        -7.1844861064       -6.6110788562      -13.4910999956
 H        -7.8153678831       -5.9576364717      -14.9813566827
 H        -5.2794762581       -3.8049160872      -12.2042100027
 H        -5.9637653010       -5.3803883793      -11.8220329951
 H        -6.9940551567       -3.9468428048      -11.6066497084
 H        -0.3494106599       -5.6658835601      -16.1546999878
 H         0.8944733701       -6.4475337704      -15.2882448021
 H         0.0649499174       -4.9661678622      -14.6358079971
 H        -1.6987237647       -7.1499797109      -16.6044518548
 H        -2.5397296513       -8.2084224528      -15.5019945289
 H        -0.8660945022       -8.4941509009      -15.9461296784
 H        -2.9286924421      -10.0759779407       -9.3272929814
 H        -2.1525042492      -10.0718750133       -7.8291752960
 H        -1.3950329727      -11.1468135903       -9.0282271457
 H        -2.5240517603       -7.6063780466       -9.2625785248
 H        -1.0366598789       -7.0032609176       -9.9859859839
 H        -1.1804995836       -7.2045814650       -8.2406679500
 H         5.1007581912      -12.0848382935       -7.1003011248
 H         3.4609885662      -12.4184583726       -7.8059852013
 H         3.8878378460      -12.8955486383       -6.0307967186
 H         4.6476554587      -11.1479377495       -4.4099223870
 H         2.8673950136      -10.9915822871       -4.1783857261
 H         3.8952181919       -9.6131790900       -4.4330593117
 H         6.5668875257       -4.8697953771       -9.3457290277
 H         5.4583638003       -3.7029914009       -9.6627573808
 H         5.4837538481       -5.1262590849      -10.6523883570
 H         4.3538283785       -6.4111836307       -6.8655894079
 H         5.3711469487       -4.8559197802       -6.8288021666
 H         6.0324689430       -6.3400165933       -7.2558364372
 H         1.5188607147       -0.6180808687      -11.1126134268
 H         2.8009862505        0.5086267643      -10.6654123327
 H         1.0964850095        0.9590450243      -10.7866962368
 H         2.7064002228        1.9057233860       -8.8310342866
 H         1.6978328158        1.6434513198       -7.3930074416
 H         1.1545770723        2.2685497686       -9.0339649109
 H        -4.7064152557        2.3428034629       -4.4391654596
 H        -4.7511713071        3.5950256042       -5.8456662104
 H        -3.2773813495        2.8985680165       -5.3316941101
 H        -4.7691694462        0.2912136352       -4.4710797200
 H        -3.1469026988       -0.0968608406       -5.3104732070
 H        -4.7092605662       -0.6788406185       -5.9939115259
 H       -11.7254731903        3.3687011292       -5.6843203213
 H       -10.2828332253        2.9568503234       -4.8391926797
 H       -11.3683950795        1.6366308276       -5.1949412190
 H       -11.7389451817        2.5399202203       -8.5340022953
 H       -12.1467156617        1.0912200517       -7.6949631623
 H       -10.7065256354        1.1468502038       -8.7192776743
 H        -6.0789214727        8.1137061738       -4.8683358303
 H        -4.9930973543        8.8306950545       -5.9180683089
 H        -4.4636335681        7.3537321398       -4.9969828960
 H        -7.2488444579        7.6403696580       -8.3526426383
 H        -5.9765789757        8.8441782011       -8.1132066688
 H        -7.2030220239        8.9253494916       -7.0531319930
 H         0.6043247212        6.8217316634      -10.7844446242
 H         0.3109984015        6.0614346129      -12.4278315563
 H         0.0658814713        5.2001604045      -10.8948234568
 H        -2.6742137866        8.3904560748      -11.6939538233
 H        -1.7975286541        7.7011934373      -13.1529746370
 H        -0.9480399655        8.7192219827      -11.8592662362
 H        -6.1350772576        2.8560109283      -14.5357363609
 H        -7.4696642092        3.7690945056      -14.0315612332
 H        -7.5342691615        2.1120406636      -13.8709984414
 H        -8.1164396315        3.9185970655      -11.4376118289
 H        -7.1947374094        3.2595911118      -10.3550056967
 H        -8.2067261875        2.2598108599      -11.4647294043
 Na       -4.1561718843        3.5310555754       -9.5027437879
 Na        1.6329468934       -7.2163677772      -10.7289546163
