232

 C        -6.0033063597        0.4377285520      -12.6621847673
 C        -5.6317928327        1.7681501024      -12.0578047470
 O        -4.8292683365        1.8750326580      -11.0826531429
 C        -6.3249037448        3.0912754737      -12.5777803086
 C        -5.2488824908        4.1330226784      -12.4601351712
 O        -5.2121553788        4.8866568543      -11.5064689115
 C        -4.0159227894        4.0827295866      -13.4804722843
 C        -3.0583303649        5.1679157102      -13.3401674564
 C        -2.5742312278        5.4270835591      -11.8021853059
 O        -2.5969910424        4.5988447203      -10.9828669710
 C        -1.8288724455        6.7825653832      -11.4073345856
 C        -1.9574461925        7.1164058230       -9.9180718161
 O        -1.1320104862        7.5528300239       -9.1917240189
 C        -3.5501503280        7.1651988329       -9.5377060023
 C        -3.6147989644        6.9579181921       -8.0586159979
 C        -4.8336217337        6.2901028030       -7.4878838591
 O        -5.0716416399        5.1352617673       -7.7577553681
 C        -5.8778216351        7.1581743236       -6.5777889473
 C        -6.8366946790        5.9522344821       -5.9719638103
 O        -6.4994365889        5.4796047607       -4.9389571923
 C        -8.1875662558        5.6798239181       -6.7072316236
 C        -9.0770040803        4.5528364327       -6.2058637276
 C        -9.6879915417        3.6118773953       -7.3325999453
 O        -9.6186318979        3.7779382045       -8.5355523325
 C       -10.3318723975        2.3304273915       -6.7221466309
 C        -9.0399578564        1.3872154503       -6.4455016429
 O        -9.0295174102        0.6833798467       -5.4457165979
 C        -7.9990202704        1.3054027395       -7.5650838533
 C        -6.7189508584        0.5296455904       -7.0954138796
 C        -5.4493251174        1.3300087216       -7.3613835124
 O        -5.4713167117        1.9155197393       -8.4446357613
 C        -4.2894594021        1.3410971855       -6.3771260085
 C        -2.9928681221        1.5559254032       -7.1639604598
 O        -2.7992325973        2.6390238897       -7.6474520375
 C        -2.0348273653        0.4337566969       -7.5975178769
 C        -0.5531251589        0.8266251067       -7.8095930382
 C         0.0681613964       -0.1685648792       -8.8032586724
 O        -0.5096752267       -1.1658523532       -9.1881749856
 C         1.5698698609        0.0180526885       -9.2498979375
 C         2.2589421517       -1.1768048538       -8.4007570387
 O         2.3297516559       -1.0886012468       -7.2024583513
 C         2.6238774468       -2.3846854240       -9.0617639815
 C         3.5116513223       -3.3785199714       -8.1862085650
 C         3.5276837328       -4.7187735850       -8.7426537357
 O         2.4073927394       -5.2389659461       -9.0345077727
 C         4.8115151129       -5.5579185796       -8.7663445049
 C         4.6495903680       -7.1369314464       -9.2594784024
 O         3.8177578066       -7.3874293326      -10.0666167492
 C         5.6318430748       -8.3103081835       -8.7758642332
 C         4.6946917906       -9.5721284533       -8.4432577843
 C         4.3381690708       -9.6872404341       -7.0025690079
 O         4.3298528156       -8.7033158915       -6.2591632563
 C         3.6627321948      -11.0169859917       -6.4431898632
 C         2.0719613791      -10.6244103377       -6.7240063990
 O         1.3336130673      -11.3842009389       -7.3104374344
 C         1.5178383076       -9.3966819109       -5.8390558741
 C         0.1924637952       -8.7305893168       -6.3600221545
 C         0.2856156031       -8.5360722233       -7.8668048023
 O         1.3017190065       -8.0630176610       -8.3461738401
 C        -0.9774795974       -8.8196538808       -8.9332534056
 C        -0.4797075235       -8.9590679474      -10.4931169412
 O         0.6762525267       -9.1090529687      -10.7238396347
 C        -1.6162773894       -9.0854435115      -11.6262046104
 C        -1.0565076832       -8.9259444569      -13.0240797433
 C        -0.6432835900       -7.5528011424      -13.4098312340
 O         0.1070221342       -6.8741162264      -12.7577596963
 C        -1.2935251843       -6.8425488266      -14.7359004358
 C        -2.6146945512       -6.0067667689      -14.0744467354
 O        -3.2571273913       -6.4840086469      -13.1870414713
 C        -3.0046377833       -4.6944734435      -14.6489649470
 C        -4.3579896685       -4.2226820437      -14.0251985257
 C        -5.5128600214       -4.9485660304      -14.6203157960
 O        -5.4642820808       -5.5320732880      -15.6595606620
 C        -6.7958962768       -4.8473473647      -13.7674479557
 C        -7.3218060089       -3.4021284630      -14.0632640745
 O        -6.5906828687       -2.4226941210      -13.9760259235
 C        -8.7691168232       -3.1140081244      -14.4573678551
 C        -8.8667528715       -1.7786737469      -15.2708655621
 C       -10.2760303002       -1.4230401747      -15.8016792609
 O       -11.1435952067       -2.2390663844      -15.9346510262
 C       -10.4901880906        0.1514812427      -16.0286085232
 C       -10.5369684799        0.5829251550      -14.5826724397
 O        -9.7002302826        1.2388028805      -13.9873434738
 C       -11.7710360965        0.1151437888      -13.7631384818
 C        -9.3047126485        0.7605507222      -16.8015765379
 C       -11.7850346797        0.4151645633      -16.7240287407
 C        -7.7663191039       -5.8587512009      -14.3415372521
 C        -6.3988514873       -5.0237425274      -12.2360526228
 C        -0.3138229118       -5.7541993781      -15.3106466116
 C        -1.8056336047       -7.8115774061      -15.7592268700
 C        -1.6366369542      -10.1818773338       -8.4250133842
 C        -1.9113071167       -7.5781611927       -8.7666107147
 C         4.0151267059      -12.2676933936       -7.2088556283
 C         4.0081470001      -11.1325328717       -4.9236337202
 C         5.7201799701       -5.0066518607       -9.9169526500
 C         5.5725382485       -5.6219374091       -7.4540336313
 C         1.6566984941       -0.0524936668      -10.7971699137
 C         2.1904986338        1.4677151364       -8.9100806264
 C        -4.6859777805        2.6153416949       -5.4340321714
 C        -4.2404613149        0.1222128316       -5.3483680962
 C       -11.2605353938        2.4431050886       -5.4894937976
 C       -11.0032184230        1.5231387205       -7.9444509104
 C        -5.3200084982        7.9155157137       -5.3910997138
 C        -6.4425313473        8.1953657361       -7.5989308416
 C        -0.3466439649        6.5707192964      -11.7856773554
 C        -2.2834242521        7.9653901176      -12.2378103319
 C        -6.9219315613        2.9283250170      -13.9704465782
 C        -7.4351652524        3.4435333804      -11.7054287684
 H        -6.8818237520       -0.0436798983      -12.2839145153
 H        -5.2360267731       -0.2594985012      -12.4413033579
 H        -6.1385181704        0.3566162495      -13.7452909861
 H        -4.2943124705        3.7849972228      -14.5470254936
 H        -3.5709818582        3.1769762532      -13.0272364558
 H        -3.4945380257        6.1191239167      -13.7173681744
 H        -2.1840960716        5.1318692009      -13.9739460459
 H        -3.9333229173        6.3823374503      -10.1720911217
 H        -3.8825854620        8.1454298270       -9.9126337382
 H        -3.5177980108        7.8854677402       -7.5487610084
 H        -2.8118869052        6.2514897084       -7.8244517595
 H        -7.9566506387        5.3664348944       -7.7224212377
 H        -8.8372390591        6.5374569387       -6.7285379253
 H        -9.8524681444        5.0144141033       -5.6455262125
 H        -8.4833422631        3.9763826427       -5.4451398743
 H        -7.6707656201        2.2953746254       -7.9225304017
 H        -8.4898741904        0.8710316696       -8.4628706137
 H        -6.7255615865       -0.4040278296       -7.6614308155
 H        -6.7402115645        0.2225787721       -6.0394706452
 H        -2.5221986548        0.0079206443       -8.4989911065
 H        -2.1543655574       -0.3029773414       -6.8114473496
 H         0.0244541464        0.7202269190       -6.8377060260
 H        -0.4648266425        1.8786320435       -8.1378109075
 H         3.2243694312       -2.1799086154       -9.8937543085
 H         1.7015397033       -2.9148636165       -9.4285284749
 H         2.9183180164       -3.4247758003       -7.2570645746
 H         4.5105855767       -2.9261226213       -8.0950997943
 H         6.0383355168       -8.1372396895       -7.8090671467
 H         6.4155277062       -8.5598975588       -9.5127724989
 H         5.0413690009      -10.5315935673       -8.7268790785
 H         3.7505494978       -9.4485036071       -8.9978561214
 H         2.4525064555       -8.7173122862       -5.6378953850
 H         1.2180456636       -9.8447501000       -4.7657984376
 H         0.1330093900       -7.6820486832       -6.0864489167
 H        -0.6376890172       -9.3048824405       -6.0828826547
 H        -2.3706401946       -8.3823085500      -11.3283215951
 H        -2.1173684976      -10.0670714642      -11.4617160203
 H        -1.8340008937       -9.4322957963      -13.8216932945
 H        -0.0323624373       -9.3379519779      -13.0784967944
 H        -3.0785271372       -4.8860567905      -15.7544603256
 H        -2.1893365350       -4.0435847063      -14.5097658249
 H        -4.4771097948       -3.1163841801      -14.1592088645
 H        -4.2965569531       -4.3122820419      -12.9675298203
 H        -9.2751049969       -3.0042336341      -13.5421838218
 H        -9.2664199540       -3.8615959324      -14.9851396743
 H        -8.2267401860       -2.0601834419      -16.1857969780
 H        -8.5505514718       -0.9609535271      -14.7491941148
 H       -11.5193804574       -0.1779865566      -12.7771589309
 H       -12.3857750333       -0.6579691429      -14.2060331118
 H       -12.3625511847        1.0294883767      -13.4894881088
 H        -8.2777703359        0.6265494323      -16.4629790581
 H        -9.4447447370        1.8463871733      -17.0813749868
 H        -9.1386429842        0.2777571959      -17.7395552819
 H       -12.6177275155       -0.1981554364      -16.3964392446
 H       -11.7613548347        0.2313074706      -17.8133668313
 H       -12.0601500048        1.4446969178      -16.5638881138
 H        -8.6833146541       -5.8341186590      -13.8156056073
 H        -7.4543336624       -6.9788485574      -14.3490415216
 H        -7.9223565769       -5.6684987889      -15.4252862247
 H        -5.9763060677       -4.0938641330      -11.8526669860
 H        -5.6114445217       -5.6723678372      -12.0968939399
 H        -7.3242184285       -5.1677276111      -11.6710137947
 H        -0.8383224664       -5.0164357281      -15.9001405457
 H         0.4206990705       -6.2537644892      -15.9586404228
 H         0.1730550783       -5.2899061736      -14.3981053895
 H        -2.1427462849       -7.2615179124      -16.6400968821
 H        -2.6818399909       -8.3641909579      -15.3886515173
 H        -1.1540477520       -8.5584273415      -16.0770516772
 H        -2.2365391432      -10.5710958540       -9.2793661461
 H        -2.2312050336       -9.9327796684       -7.5727646091
 H        -0.8030450327      -10.7523981558       -8.1239201555
 H        -2.6774301906       -7.5087051204       -9.5922352334
 H        -1.2422648333       -6.6848612706       -8.7717134953
 H        -2.4339224825       -7.5017879164       -7.7607731454
 H         4.4012614759      -12.1523822496       -8.1941409125
 H         3.1712733419      -12.8893854489       -7.1693582626
 H         4.7661995150      -12.7810529544       -6.7050785969
 H         5.0364068355      -10.8142677219       -4.6762142998
 H         3.8116385549      -12.1731528099       -4.5553659460
 H         3.1803515763      -10.6314944365       -4.3942869688
 H         6.2633780269       -5.8103210089      -10.3820642553
 H         6.4902401130       -4.3420875242       -9.5303341793
 H         5.2101553660       -4.5397353654      -10.8083168821
 H         4.9803632865       -6.1065800757       -6.6200761970
 H         5.8028322363       -4.6477441917       -7.1106476041
 H         6.5206828330       -6.1239084414       -7.5824214207
 H         1.1996024839       -0.9861819097      -11.2106097471
 H         2.6430404735       -0.1555387843      -11.1944446799
 H         1.2083381955        0.8806421608      -11.2794837626
 H         3.1047990791        1.5349860330       -9.3717547512
 H         2.4993289867        1.3886961611       -7.9104825201
 H         1.6229482810        2.4438619049       -9.0406305212
 H        -5.7766715327        2.7622193105       -5.4399778841
 H        -4.1424873302        3.4127143061       -5.9377747942
 H        -4.2743174694        2.4349189322       -4.4703679342
 H        -5.1401925875       -0.0328619276       -4.7003011787
 H        -3.4837966768        0.2914716267       -4.5391715021
 H        -3.9772301116       -0.7596049548       -5.9029725791
 H       -12.0445295321        3.2170042080       -5.6329316533
 H       -10.7793651153        2.6738775821       -4.5777389749
 H       -11.8151924772        1.5218783822       -5.3819416300
 H       -12.0483997534        1.6825469976       -7.9094327759
 H       -10.8463735839        0.4447691971       -7.8699815373
 H       -10.6988672854        1.8868990634       -8.9349767958
 H        -6.0427806723        8.6518181175       -5.1785457685
 H        -4.3637773158        8.3913298672       -5.6149571298
 H        -5.2964930083        7.2397878465       -4.5485587565
 H        -6.6266306980        7.7677198619       -8.6236637433
 H        -5.7542228159        9.0052624390       -7.8094310992
 H        -7.4216727846        8.6921325861       -7.3701344422
 H         0.1018398686        7.5400309186      -11.4036245656
 H        -0.1596974738        6.5403849538      -12.9135998757
 H         0.1034073830        5.6701167985      -11.3363647901
 H        -3.2860064548        8.3227835105      -11.9967478099
 H        -2.1911635084        7.5778096702      -13.2604762819
 H        -1.5965485005        8.7877726285      -11.9555539419
 H        -6.1239863405        2.6090907545      -14.6813501614
 H        -7.3932435980        3.7879943461      -14.4459342330
 H        -7.7791383728        2.2394615259      -13.9740652976
 H        -7.9758203510        4.3520189321      -11.9531560776
 H        -7.1038178254        3.6249640437      -10.6664603789
 H        -8.3060853801        2.7500249534      -11.7195709786
 Na       -4.3173660252        3.6355614269       -9.5163100297
 Na        1.4987102440       -6.9306116527      -10.6954808344
