232

 C        -6.1825161939        0.5383089266      -12.5103054882
 C        -5.6664446470        1.8606495613      -12.0088144197
 O        -4.7832833761        1.8168682247      -11.1295434645
 C        -6.2390028385        3.1515163415      -12.7143874327
 C        -5.1241183655        4.2136900685      -12.6663316153
 O        -5.2380424759        5.2715290633      -12.0726713813
 C        -3.8718568667        3.8398746597      -13.4663539022
 C        -2.7865388376        4.9169624597      -13.3808620098
 C        -2.5603690283        5.5354556546      -11.9852583986
 O        -2.4451701414        4.8156091085      -10.9885310641
 C        -2.0832813609        6.9350766561      -11.7642237612
 C        -2.0758271968        7.2812911028      -10.1765723481
 O        -1.1434469191        7.6893051099       -9.5813324599
 C        -3.4975276702        7.2535943578       -9.5190198739
 C        -3.5380917830        7.3398944514       -7.9847283360
 C        -4.7210384125        6.4307331755       -7.5160357574
 O        -4.8209325464        5.2465849198       -7.7698792122
 C        -5.8721770157        7.1395718989       -6.5953379674
 C        -6.9282094752        5.9212176438       -6.0185229378
 O        -6.6476145660        5.1208055676       -5.1835989651
 C        -8.3041798783        5.7855585791       -6.7362831884
 C        -9.0779225284        4.6068622409       -6.1428217296
 C        -9.8135310287        3.7291995284       -7.1577669649
 O        -9.8404022934        4.1227117825       -8.3025227871
 C       -10.2281375141        2.3384508760       -6.7035481010
 C        -9.1131718670        1.3773406416       -6.3587173330
 O        -9.1780941675        0.6486620529       -5.3813223470
 C        -7.9444131290        1.4501008939       -7.3256912404
 C        -6.7353870271        0.5242200922       -7.0503418245
 C        -5.3832494708        1.1035974434       -7.5857305388
 O        -5.3026930020        1.5137639282       -8.7160536208
 C        -4.1880542526        1.3588235541       -6.4964592317
 C        -2.7913797345        1.5942972901       -7.2453813722
 O        -2.7401908480        2.5668726573       -7.9911338355
 C        -1.6296162263        0.6350581679       -7.1026569228
 C        -0.5594523100        1.0459516139       -8.1066735356
 C        -0.0499278641       -0.2191993000       -8.9234783001
 O        -0.7686722879       -1.1858940749       -9.1154854901
 C         1.4757049046       -0.2214332608       -9.2654201030
 C         2.2824106458       -1.2844114199       -8.3221636196
 O         2.4285970241       -1.0494737869       -7.1416711658
 C         2.7115432159       -2.4206745037       -9.1051909024
 C         3.5205034012       -3.4122373105       -8.2699689244
 C         3.6482902467       -4.8622156828       -8.9234521110
 O         2.6400915562       -5.0477454186       -9.6345936936
 C         4.9275168546       -5.7809729943       -8.9049618979
 C         4.5838960233       -7.3027607309       -9.0662451416
 O         3.7701450507       -7.6619283546       -9.8918937078
 C         5.6626620718       -8.2524083532       -8.6341774649
 C         5.1529600377       -9.7235123085       -8.3184720530
 C         4.3600410223       -9.7729461190       -7.0060638025
 O         4.3232637497       -8.7293536851       -6.3825723548
 C         3.5469264315      -11.0031040404       -6.6175818180
 C         2.0749626691      -10.6523363116       -6.5957514016
 O         1.1986241170      -11.2906555602       -7.1986800529
 C         1.4229047265       -9.5512749818       -5.7755349287
 C         0.0552621409       -9.1246801371       -6.3851409857
 C         0.2259556423       -8.5173842372       -7.8158837211
 O         1.0495328179       -7.6549990539       -8.1169500027
 C        -1.0967593763       -8.8229525461       -8.7560790881
 C        -0.6064583631       -8.8086057054      -10.2087271898
 O         0.5221170732       -8.9408073985      -10.5900286714
 C        -1.6909417900       -8.7839160105      -11.3109291436
 C        -0.9891786934       -8.7253830271      -12.6640944327
 C        -0.5161581372       -7.3247316999      -13.2505085490
 O         0.2254882529       -6.6160048896      -12.6210057516
 C        -1.2595172928       -6.8471999433      -14.4937965493
 C        -2.6403662371       -6.1668215227      -13.8871209284
 O        -3.3140265111       -6.7934175822      -13.1517318148
 C        -2.8558353149       -4.6226017191      -14.2357614568
 C        -4.3157880290       -4.2009403836      -13.9777511333
 C        -5.4049159156       -5.2270058428      -14.4449059372
 O        -5.1727790349       -5.7911483842      -15.4742712182
 C        -6.9175696343       -5.0362536216      -13.9003727720
 C        -7.4852186577       -3.5975269464      -14.1029738546
 O        -6.8165835732       -2.7453341140      -13.5486522910
 C        -8.8731347520       -3.2511267882      -14.6994841667
 C        -8.7903748026       -1.9089474997      -15.5403452821
 C       -10.1633441273       -1.3703299695      -15.9724715521
 O       -11.0015491188       -2.0407974297      -16.5223150833
 C       -10.4255680340        0.1946294136      -15.6618821764
 C       -10.6622263114        0.7013227671      -14.2196771369
 O        -9.7497056590        1.3954879329      -13.7813492135
 C       -11.8798745570        0.2816866142      -13.3227342319
 C        -9.2941645721        1.0559970687      -16.2485636531
 C       -11.7722251134        0.4889460746      -16.3866223974
 C        -7.7749824549       -6.0007782633      -14.7224599453
 C        -6.9142344559       -5.2710957709      -12.3506269961
 C        -0.2740147006       -5.9172185189      -15.2100109227
 C        -1.7918156567       -7.8361368253      -15.4857844945
 C        -1.8113548496      -10.2624640853       -8.5714156816
 C        -2.1415442124       -7.7558924551       -8.3862514734
 C         3.6701604640      -12.1374889356       -7.5805611512
 C         3.9519743891      -11.3544543502       -5.1553660296
 C         5.7873581456       -5.1981795620      -10.0906536944
 C         5.6426078677       -5.4578711733       -7.5521756959
 C         1.5730919176       -0.4851394709      -10.7700720096
 C         2.2652935119        1.0823681057       -8.9678223675
 C        -4.6337108230        2.6484017858       -5.6705711270
 C        -4.1522100869        0.1030602928       -5.5922412579
 C       -11.1651805750        2.3983057888       -5.4588420465
 C       -10.9214498436        1.7192961280       -7.9482697080
 C        -5.1670425887        7.7445827180       -5.3626037950
 C        -6.6268349931        8.1623749516       -7.4375847422
 C        -0.5380340993        7.0253466308      -11.9873876126
 C        -2.6876067794        8.0316298125      -12.6902387048
 C        -6.7103664676        2.9907268519      -14.1621591515
 C        -7.3305477958        3.5637078128      -11.8172583607
 H        -7.2237199199        0.5488324712      -12.8113133945
 H        -6.0185264774       -0.3772207273      -11.9473002893
 H        -5.6441838111        0.3932203232      -13.5001859500
 H        -4.2862610698        3.5634743795      -14.4595491161
 H        -3.4422538766        2.9068230019      -13.1819544706
 H        -2.9162130858        5.7809220619      -14.0737660758
 H        -1.8312360347        4.4509871147      -13.7388183572
 H        -3.8803153010        6.3280402676       -9.9641151344
 H        -4.0304024112        8.2079802109       -9.9403110250
 H        -3.7442056676        8.3311760861       -7.5984538064
 H        -2.6847047275        6.8419198971       -7.5431722734
 H        -8.2536752987        5.4195586959       -7.7957103117
 H        -8.8527792712        6.6630965767       -6.6820907410
 H        -9.8839376389        4.9349007256       -5.3656727583
 H        -8.4382722087        4.0873564416       -5.4667126372
 H        -7.4721606579        2.4304724016       -7.1975515030
 H        -8.2467825587        1.3709669055       -8.3396472401
 H        -6.8401841453       -0.4752907545       -7.4661726825
 H        -6.5915588108        0.4180489345       -5.9261167762
 H        -2.0509765895       -0.3100923411       -7.2343569882
 H        -1.2291089406        0.6450991938       -6.1116668214
 H         0.3017787128        1.3683083604       -7.5358624451
 H        -0.8957435248        1.7976052746       -8.8936209583
 H         3.2978860726       -2.4085258866       -9.9881797105
 H         1.8445067127       -2.9734138143       -9.4055435185
 H         2.9411088953       -3.5192496153       -7.3640433772
 H         4.5279886966       -3.0048670136       -8.0916139326
 H         6.1226689747       -8.0456045303       -7.6714933052
 H         6.4592797363       -8.4875881575       -9.3024536532
 H         6.0949001352      -10.3152064299       -8.3054735863
 H         4.5142055526      -10.1813235444       -9.1041455567
 H         1.9966781685       -8.6655706199       -5.7146443373
 H         1.2251212200       -9.9379879008       -4.8056982082
 H        -0.2429985471       -8.3041625424       -5.7199887923
 H        -0.5925976518       -9.9451373502       -6.5083647747
 H        -2.2987955662       -7.9103698139      -11.1291076834
 H        -2.3617696864       -9.6647139180      -11.0953249419
 H        -1.8125483678       -9.0115305813      -13.4369717337
 H        -0.1953270703       -9.3754344701      -12.5200344674
 H        -2.6388335092       -4.5774832167      -15.3041744355
 H        -2.0914006557       -4.0455266896      -13.7424296110
 H        -4.4904875536       -3.2551058313      -14.4084809918
 H        -4.3978346436       -3.9280459635      -12.8867503188
 H        -9.6312628175       -3.1107115624      -13.8896334828
 H        -9.2328660915       -4.1179661873      -15.3358535622
 H        -8.2382179036       -2.1293084242      -16.5448118944
 H        -8.2220050695       -1.1489730441      -14.9874860577
 H       -11.5569522331       -0.4283678873      -12.5815332866
 H       -12.7359758128       -0.1131316621      -13.8304942424
 H       -12.1324259213        1.0748097930      -12.5928830968
 H        -8.3242957406        0.8321828799      -15.7464843402
 H        -9.4250756768        2.1080907946      -16.0125469327
 H        -9.0535203225        1.0050414220      -17.2658919347
 H       -12.5695440170       -0.1578327792      -15.8740156882
 H       -11.7115355523        0.3375655721      -17.4871711233
 H       -12.0792932340        1.5034355201      -16.3626724481
 H        -8.7488904211       -6.0948319028      -14.4019916459
 H        -7.4493917276       -7.0413416917      -14.5422947941
 H        -7.5991308827       -5.8269933506      -15.7609095015
 H        -6.1791251383       -4.5948488833      -11.8210479351
 H        -6.4693559056       -6.2511322194      -12.2734376093
 H        -7.8622679042       -5.1393090764      -11.8016041592
 H        -0.6399043728       -5.6541449390      -16.1767009262
 H         0.6871275073       -6.3633363821      -15.2304897943
 H        -0.1513272581       -5.0476348914      -14.5412851750
 H        -2.4704364648       -7.3612168532      -16.2307574137
 H        -2.4055993475       -8.6001248716      -15.0030307461
 H        -1.0701182202       -8.4633412998      -16.0202770770
 H        -2.6650591841      -10.2675256087       -9.3074861374
 H        -2.1094394315      -10.3066475809       -7.5431133897
 H        -1.0869200697      -11.0087123159       -8.8344615567
 H        -3.1467273494       -8.0694478702       -8.6011541387
 H        -1.9750464501       -6.8193294264       -8.8199659549
 H        -2.1454146679       -7.5768950150       -7.3216421236
 H         2.8299618747      -12.1641395813       -8.3133582716
 H         3.8263366861      -13.1072676845       -7.0543607347
 H         4.5509432682      -12.0280639994       -8.2712956612
 H         4.9368796086      -11.8156207036       -5.2548867707
 H         3.3388621857      -12.0481360807       -4.6442031636
 H         4.0079132085      -10.4037461925       -4.6418303348
 H         6.8363196331       -5.4598173761       -9.9999503757
 H         5.6594035474       -4.1281295518      -10.0193666182
 H         5.5235819722       -5.4765078056      -11.1120022154
 H         5.3421333763       -6.1818773261       -6.7057388105
 H         5.3805828830       -4.4941256664       -7.0777814003
 H         6.6730962074       -5.6229689645       -7.6782295279
 H         1.1402097977       -1.3408012182      -11.1595248804
 H         2.5854650924       -0.5191889448      -11.1554833194
 H         1.2033396809        0.4312775870      -11.1992638563
 H         3.2989570274        1.1210282544       -9.1644029355
 H         2.2220653613        1.3700616875       -7.9034615374
 H         1.5858356701        1.8830388169       -9.4540405204
 H        -5.1912102212        2.1818377066       -4.8246871720
 H        -5.2199596437        3.3934164337       -6.2175922217
 H        -3.7006983643        2.9556532205       -5.2008864542
 H        -4.8516504390       -0.0250079329       -4.7205973869
 H        -3.1455849548        0.1127220570       -5.0876484110
 H        -4.1939595415       -0.7941734080       -6.1195577358
 H       -12.2093599446        2.5015151199       -5.7800394706
 H       -10.8748989958        3.0802173688       -4.6980247916
 H       -11.2226553416        1.3848020700       -4.9699216339
 H       -11.9889345494        1.7960416529       -8.0064597088
 H       -10.5697734246        0.6477874907       -8.0166740353
 H       -10.5345029944        2.2716340403       -8.8042025663
 H        -5.8091606178        7.8528851869       -4.5360042154
 H        -4.7409926196        8.7158589488       -5.7273835653
 H        -4.3375042275        7.0644760981       -5.0196346834
 H        -7.1438429444        7.6376785499       -8.1797660833
 H        -6.0042393902        8.8105292232       -8.0351077536
 H        -7.4301373817        8.6640209434       -6.9891950157
 H        -0.1862921618        7.8773817163      -11.5050227573
 H        -0.2723631232        7.1225381842      -13.0221775266
 H        -0.1267226499        6.1738401026      -11.5536925118
 H        -3.6906128315        7.8064164111      -12.8772384142
 H        -2.1112087455        8.0188594811      -13.6711058461
 H        -2.5466248911        8.9572474528      -12.2152220417
 H        -6.0230576030        2.3550802076      -14.7196678080
 H        -6.7425349461        3.9924738164      -14.5848067433
 H        -7.7010628560        2.6274794815      -14.3327215649
 H        -7.8723114135        4.4964371800      -12.1439639533
 H        -7.0990592067        3.5499372896      -10.7807590367
 H        -8.1076050132        2.7320885709      -11.7178746465
 Na       -4.1344340754        3.6165556158       -9.4803563955
 Na        1.6037990862       -6.8683085329      -10.5693968722
