232

 C        -6.3228132834        0.6102738321      -12.3965587497
 C        -5.7102039426        1.9423200507      -12.0888212248
 O        -4.6950177873        1.9654155157      -11.4672787504
 C        -6.1249168721        3.2303737076      -12.7549696178
 C        -4.9350055121        4.2877539068      -12.7647241859
 O        -5.1137865093        5.4396247210      -12.3591929490
 C        -3.5650419810        3.8802761874      -13.3317555001
 C        -2.6216973210        5.0497519840      -13.3991599334
 C        -2.4407013609        5.5757822223      -11.9778574833
 O        -2.6330538399        4.8577510161      -10.9963523297
 C        -1.9876851781        6.9585881408      -11.7768503884
 C        -2.2623784041        7.4442308075      -10.2798422924
 O        -1.3303025157        7.7730873671       -9.5269081535
 C        -3.7106646158        7.3461882367       -9.7936897406
 C        -3.7519895801        7.3670269736       -8.2999580024
 C        -4.8511761369        6.3554948603       -7.7231427880
 O        -4.9341552721        5.1593876472       -8.0741728209
 C        -5.7883314527        6.9853062394       -6.6895681006
 C        -6.7987936147        5.8433105327       -6.2516045531
 O        -6.2801436419        5.0767842799       -5.4228712742
 C        -8.2577975045        5.7765723613       -6.6710058937
 C        -9.1530126138        4.6920551611       -5.9740075386
 C        -9.8014613086        3.8389994248       -7.0455345705
 O        -9.8992074931        4.3286728088       -8.1657870003
 C       -10.3270175281        2.3910607388       -6.7316191779
 C        -9.0591792087        1.4310454576       -6.4098676265
 O        -8.9669357700        0.7301046534       -5.4614134274
 C        -7.7848281000        1.6717158911       -7.3113692730
 C        -6.7198670595        0.5966332421       -6.9351304055
 C        -5.3649193951        1.1029783583       -7.5010647663
 O        -5.3360048460        1.5154032579       -8.6446183954
 C        -4.1032336643        1.2810195940       -6.4995273031
 C        -2.8871706837        1.5580562749       -7.3727278511
 O        -2.8000590532        2.4162372720       -8.2432883317
 C        -1.5594594855        0.8893253410       -6.9918922798
 C        -0.4710111431        1.1895576594       -8.0771732254
 C        -0.0192474083       -0.1175947961       -8.8033445390
 O        -0.7114388144       -1.0747794614       -9.0168365026
 C         1.5270875711       -0.2121971537       -9.2996788448
 C         2.3213917875       -1.2850527672       -8.3913478038
 O         2.4383185285       -1.0062425181       -7.1934926930
 C         2.7447911218       -2.5273867218       -9.1500274759
 C         3.5203569267       -3.6839422270       -8.2800644579
 C         3.6848232732       -4.9567894994       -9.0998444654
 O         2.8611535865       -5.1612928964       -9.9434949561
 C         4.9832114218       -5.8616597483       -8.9580070867
 C         4.7238412999       -7.3602349378       -9.1250976647
 O         3.7389544716       -7.8127560139       -9.6801153018
 C         5.7826215505       -8.2025728439       -8.5845755234
 C         5.3135861522       -9.6546830443       -8.3875785704
 C         4.3345354863       -9.7139525401       -7.1654398074
 O         4.2389025532       -8.7564349977       -6.4196581288
 C         3.5334115531      -10.9923581240       -6.7970178589
 C         1.8992781926      -10.5933366203       -6.7372108267
 O         1.1035519978      -11.3390433483       -7.2670275155
 C         1.4715866277       -9.4531342802       -5.9798995487
 C        -0.0339960234       -9.0862457277       -6.1672319728
 C        -0.0861836818       -8.4100708358       -7.6103249939
 O         0.8452823104       -7.7232526792       -7.9148921963
 C        -1.2647343718       -8.7532938185       -8.5949834574
 C        -0.7254246173       -8.7057375650      -10.0078673004
 O         0.4490175420       -9.0736856968      -10.2140020096
 C        -1.6501630911       -8.3601308435      -11.1422650693
 C        -1.0030256775       -8.6943411006      -12.4997728941
 C        -0.4926914034       -7.4372846484      -13.1018600573
 O         0.3019069324       -6.7782536071      -12.3926211425
 C        -1.2522317537       -6.7603688806      -14.3384609352
 C        -2.6671436749       -6.0848876217      -13.8478193133
 O        -3.4017570196       -6.7308756098      -13.1087742916
 C        -3.0794577436       -4.5633703335      -14.2433676296
 C        -4.4616810343       -4.2972709109      -13.6223573353
 C        -5.4289777699       -5.1899654200      -14.3540524832
 O        -5.0325585979       -5.9610843644      -15.2228506303
 C        -7.0577138436       -5.1080311940      -14.0064388573
 C        -7.5316795306       -3.6267694511      -14.1259536575
 O        -7.0132768877       -2.7637756600      -13.4354728594
 C        -8.7204514711       -3.2504647808      -15.0687308805
 C        -8.7170134006       -1.7845265588      -15.4030801733
 C       -10.0730171040       -1.1946581382      -15.8345107589
 O       -10.7923508067       -1.8991078011      -16.5417372199
 C       -10.4394262018        0.3285688294      -15.5283676321
 C       -10.5832303406        0.6902767378      -13.9748861532
 O        -9.6335830837        1.2147631171      -13.4163251162
 C       -11.7792113295        0.1411326434      -13.2592482257
 C        -9.4228473949        1.2019590808      -16.2711081183
 C       -11.7488206955        0.5929949392      -16.2342349286
 C        -7.6907432279       -6.1261715115      -14.8810568232
 C        -7.1657171281       -5.7314273564      -12.6211873744
 C        -0.3293994353       -5.6845231216      -15.0611339498
 C        -1.6216255331       -7.9370023675      -15.3511221264
 C        -1.5294307303      -10.2787387068       -8.4855604307
 C        -2.4484040433       -7.7820307537       -8.4324022086
 C         3.7692612210      -12.2068619515       -7.7365709072
 C         3.9181165332      -11.4912872015       -5.3181179295
 C         5.9129807335       -5.5451194115      -10.1489118977
 C         5.6202064163       -5.5257721100       -7.6339053501
 C         1.4357902835       -0.6690273270      -10.7802664204
 C         2.2394968113        1.0826013191       -9.1029713920
 C        -4.4227806007        2.6025051692       -5.7280766007
 C        -3.8203820052        0.1246225206       -5.5745550869
 C       -11.3385317818        2.4672485013       -5.4961278860
 C       -11.1944979973        1.7625210742       -7.8821465457
 C        -5.1791976170        7.4706845006       -5.3006687552
 C        -6.6942286479        8.1459796480       -7.3256719548
 C        -0.6517618592        7.2464575435      -12.3596408736
 C        -3.0533420170        7.8579078721      -12.5483361613
 C        -6.6850980548        2.9836717887      -14.1788820659
 C        -7.3120820991        3.7076245918      -11.8323250345
 H        -7.2050854205        0.5145708284      -13.0214971074
 H        -6.5418103876        0.0609271751      -11.4790323541
 H        -5.6035383534        0.0032234179      -12.8547182864
 H        -3.5713282226        3.3887932814      -14.3068151673
 H        -3.1615484215        3.0348198598      -12.6774636835
 H        -3.0516394933        5.7657475985      -14.1001983134
 H        -1.6732263835        4.7114888986      -13.8538698743
 H        -4.0204540784        6.3404875640      -10.1586819571
 H        -4.2545505663        8.1215738122      -10.2320593678
 H        -4.0719926406        8.2818055954       -7.8022895862
 H        -2.7957070609        7.0210520980       -7.9208502177
 H        -8.3252528683        5.6605887632       -7.7201005762
 H        -8.7471716839        6.7861427070       -6.4255511311
 H        -9.7906849277        5.0707059059       -5.2383257067
 H        -8.5506294979        4.0328135482       -5.3026779678
 H        -7.3248385809        2.6664015113       -7.1230445856
 H        -8.0189183001        1.5434560071       -8.3909364978
 H        -6.8686503150       -0.3572410307       -7.4885436720
 H        -6.7897197681        0.4180675110       -5.8987984074
 H        -1.7003711011       -0.2057024012       -6.7935116262
 H        -1.2721130975        1.3015027211       -6.0105758280
 H         0.4829985190        1.5568713226       -7.6568897830
 H        -0.8507692004        1.7411303326       -8.9104850970
 H         3.5400665932       -2.3722632798       -9.9266847920
 H         2.0658591347       -3.0646662691       -9.7901905633
 H         2.8707599139       -3.9516933642       -7.4299791265
 H         4.4964328538       -3.3733146173       -7.9338236569
 H         6.3803667964       -7.9324001264       -7.7191060630
 H         6.4641197916       -8.2866069792       -9.4496529884
 H         6.1003882435      -10.3761058473       -8.1976896925
 H         4.8592259935       -9.9368429980       -9.3144091155
 H         2.0598490817       -8.5163039345       -6.3536965817
 H         1.8128152594       -9.7536158030       -4.9189893009
 H        -0.1296042346       -8.3081291806       -5.4359616765
 H        -0.7750421156       -9.9141228641       -6.0430676927
 H        -2.1733133299       -7.3776186813      -11.0555847292
 H        -2.3849380125       -9.1043472443      -10.9051032990
 H        -1.7256347121       -9.0787220134      -13.0989363909
 H        -0.0936753481       -9.3223801207      -12.0763596758
 H        -2.9803217616       -4.3872168834      -15.3018508873
 H        -2.2559616926       -4.0348601322      -13.6980996277
 H        -4.8679221877       -3.2666663864      -13.7867903954
 H        -4.3880440672       -4.3433230150      -12.5648555255
 H        -9.5701034499       -3.6028502454      -14.5458243327
 H        -8.6749607463       -3.8134292592      -15.9565870657
 H        -8.0928804163       -1.6263789289      -16.2204722609
 H        -8.2321514649       -1.2081391830      -14.5670557502
 H       -11.4963395617       -0.8389790311      -12.8174690025
 H       -12.5894846538       -0.0561680920      -13.9533241188
 H       -12.0946677590        0.6712535866      -12.4078713301
 H        -8.4992913598        1.4269008328      -15.7214271790
 H        -9.7005004920        2.1913744985      -16.6293980086
 H        -9.0983126651        0.6495718460      -17.2243910635
 H       -12.5002260713       -0.0547710726      -15.8784868664
 H       -11.6095943512        0.5715521254      -17.2802137866
 H       -12.0727628684        1.6542248072      -16.1488432741
 H        -8.7640095011       -6.3749011836      -14.5156227623
 H        -7.2448207622       -7.0728357184      -14.7604559082
 H        -7.6155582062       -5.8161855552      -15.9285922054
 H        -6.6811626745       -5.1681049949      -11.8584793385
 H        -6.8600314739       -6.8226820022      -12.6489152897
 H        -8.2335610903       -5.7286641553      -12.3424796654
 H        -0.7508310992       -5.4346175020      -16.0700069431
 H         0.6853918963       -6.1455774423      -15.1400186775
 H        -0.1771023017       -4.8290602321      -14.4262356088
 H        -1.5908413347       -7.7094641643      -16.3906016114
 H        -2.6160005682       -8.3343144575      -15.2212977518
 H        -1.0093549452       -8.8306346805      -15.1888641874
 H        -1.8923636979      -10.6007918168       -9.4276258349
 H        -2.2655128883      -10.4570095828       -7.6729871757
 H        -0.5241755419      -10.7495109540       -8.3642768972
 H        -3.3657197911       -8.0780159356       -9.0098232215
 H        -2.2287997004       -6.6911920060       -8.7161668932
 H        -2.8112047610       -7.7640501588       -7.3766440131
 H         3.3857040403      -12.0288928060       -8.6925089872
 H         3.4148451782      -13.1518191121       -7.4205195564
 H         4.8135908071      -12.3041644511       -7.8738533734
 H         4.6011874943      -12.3547186106       -5.3758104321
 H         3.0151621620      -11.9547458980       -4.8163336839
 H         4.3593016664      -10.6373974556       -4.7492099318
 H         6.9240406282       -5.9705619395       -9.9495768818
 H         5.9287813480       -4.5134206313      -10.5473274220
 H         5.5470359774       -6.0890954422      -11.0253108143
 H         4.9772565798       -5.6878068879       -6.8593297107
 H         5.7349772479       -4.4412358094       -7.5844446422
 H         6.5780223014       -6.0043318608       -7.3384832630
 H         0.8010649492       -1.5918919216      -10.9418918484
 H         2.3711693752       -0.8009757875      -11.3959002924
 H         0.8773843299        0.1606485386      -11.2290969920
 H         3.2877025151        0.8720977645       -9.4546656360
 H         2.4237889423        1.4325083660       -8.1111216859
 H         1.8317708347        1.8278721639       -9.6275361144
 H        -5.2948479088        2.3699621431       -5.1325182229
 H        -4.7347440976        3.3165260163       -6.4915478280
 H        -3.6065428546        2.8225840047       -5.0403765272
 H        -4.8160054301       -0.2202924293       -5.3184241948
 H        -3.2610362627        0.3522863670       -4.6841768659
 H        -3.4489512736       -0.8932747655       -5.9410940140
 H       -12.1533407089        3.1220329109       -5.6336812771
 H       -10.7388254854        2.6760463505       -4.5989256373
 H       -11.7989972472        1.5507152322       -5.3003706904
 H       -11.8637125680        2.5275665611       -8.3464194900
 H       -11.7389549240        0.9502098187       -7.4601723808
 H       -10.5607783399        1.4108441323       -8.7071622194
 H        -6.0604169539        7.5365589177       -4.6006230961
 H        -4.6117693022        8.3594473105       -5.3488462632
 H        -4.6076510764        6.6639380551       -4.9204941187
 H        -7.1410545158        8.0077843433       -8.3178274904
 H        -6.0315045675        9.0445754644       -7.4334698020
 H        -7.5423479121        8.3505154474       -6.6703172495
 H        -0.6048642013        8.2491895810      -12.8387819546
 H        -0.4317301239        6.5286454891      -13.1626215750
 H         0.1148228347        7.2027592549      -11.5061493145
 H        -4.0213332991        7.3153722617      -12.4146556783
 H        -2.8082417820        7.9315421925      -13.5763771443
 H        -2.9721928077        8.9025971235      -12.1654251213
 H        -6.2823849480        2.0905101636      -14.6812219454
 H        -6.7115091693        3.8864816720      -14.8257389803
 H        -7.7626385008        2.7008495846      -14.0209349589
 H        -7.5491344790        4.7403793398      -12.0830201207
 H        -7.0915255327        3.5513313614      -10.7476812728
 H        -8.1751149815        3.0907289140      -11.7857000635
 Na       -4.0801439145        3.5796732156       -9.5937044709
 Na        1.6060243270       -7.1782022461      -10.3705472108
