232

 C        -6.3588826860        0.6574321674      -12.2936303828
 C        -5.5299131674        1.8630620670      -12.1421282488
 O        -4.5751876887        1.8952459880      -11.4057866635
 C        -6.1571492001        3.3019099674      -12.8084901078
 C        -4.9993380988        4.3024407453      -12.8743164080
 O        -5.1022472615        5.4705224201      -12.4512469989
 C        -3.6323231120        3.7591801457      -13.3398465605
 C        -2.5727520918        4.9889044731      -13.4229499571
 C        -2.4040263726        5.5690064691      -12.0002960546
 O        -2.6289186619        4.8824241803      -10.9405062282
 C        -2.0515443290        7.1082728744      -11.8523465930
 C        -2.2598476464        7.3704851347      -10.2848938860
 O        -1.4441498159        7.8032538496       -9.5311157039
 C        -3.7384606954        7.3482714643       -9.8780980597
 C        -3.8366567196        7.3473613336       -8.3754062798
 C        -4.9377811777        6.4121284888       -7.7469047996
 O        -5.0506532035        5.2814617548       -8.1939757403
 C        -5.8584153963        6.9782677197       -6.5901690776
 C        -6.7894233180        5.7648835803       -6.1083131156
 O        -6.2552919241        4.8035263427       -5.6036352553
 C        -8.2179502921        5.8078347216       -6.5286867409
 C        -9.1304633328        4.6666471071       -5.9095523526
 C        -9.8076421532        3.8200958737       -7.0827818382
 O       -10.0035660823        4.3051745925       -8.1604071977
 C       -10.3419183024        2.3706133318       -6.6950074513
 C        -9.0494122724        1.5238296503       -6.4299959751
 O        -8.9989041055        0.7863256750       -5.4791202055
 C        -7.8568524307        1.7168862052       -7.3035791036
 C        -6.7027998141        0.7268843327       -6.8976178964
 C        -5.3571160573        1.1427919406       -7.5136752423
 O        -5.3442996015        1.5633473344       -8.6585757295
 C        -4.1597069868        1.2761741940       -6.5350917821
 C        -2.7722096144        1.5744455491       -7.3592125835
 O        -2.8579216377        2.3566124775       -8.2836115950
 C        -1.3715925990        0.9000400497       -7.0387976224
 C        -0.2778381136        1.2053801941       -7.9949332314
 C         0.1353734394       -0.0790014266       -8.7528895793
 O        -0.6658776122       -0.9697991997       -8.8712440828
 C         1.5667215647       -0.1993568010       -9.3418493188
 C         2.2779394539       -1.3233192365       -8.4274927485
 O         2.4586953089       -1.1293878607       -7.2327962936
 C         2.7392677898       -2.5156292489       -9.1844700042
 C         3.4378352587       -3.6905716072       -8.3431833009
 C         3.7093102237       -4.9980495071       -9.3026674438
 O         2.9736989267       -5.4233347660      -10.1237377405
 C         4.9911818685       -5.7902601865       -8.9435822866
 C         4.6616200396       -7.4805971835       -9.0026134137
 O         3.6703112678       -7.8846541917       -9.5823186177
 C         5.7860961966       -8.4497370692       -8.6446843321
 C         5.2731922541       -9.8946159397       -8.3331700414
 C         4.3313100374       -9.7779092234       -7.0820279212
 O         4.2674351276       -8.7068489089       -6.5250758420
 C         3.4282617398      -11.0408714676       -6.8110380743
 C         1.9112493224      -10.7511193094       -6.8035589817
 O         1.0865905236      -11.4276135592       -7.4025620872
 C         1.5511505292       -9.3831568821       -5.9395181915
 C         0.0733057620       -8.9673584818       -6.1856523621
 C        -0.0444515688       -8.3343747574       -7.5551753202
 O         0.7638859221       -7.5443595904       -7.9623418854
 C        -1.2977937089       -8.8354172465       -8.4293022555
 C        -0.7463128953       -8.7642848520       -9.8777068356
 O         0.3999388176       -9.0689130334      -10.1320135098
 C        -1.6957352353       -8.3458981872      -11.0316996619
 C        -1.0545944871       -8.7062767900      -12.4456293433
 C        -0.5613451254       -7.3045294987      -12.9554510557
 O         0.3951782357       -6.7024261572      -12.4539168427
 C        -1.2478372767       -6.7221756924      -14.3248447157
 C        -2.5868798164       -6.1035670211      -13.7790713624
 O        -3.3196612855       -6.7117516085      -13.0839760047
 C        -3.0429876762       -4.6361893756      -14.1011607278
 C        -4.4620902289       -4.3812495780      -13.5448501980
 C        -5.4486424069       -5.2582331147      -14.3420184731
 O        -5.0161877084       -5.9856798264      -15.1896838562
 C        -7.0483175034       -5.2488055344      -14.0961986522
 C        -7.5466107789       -3.6968706797      -14.1812164514
 O        -7.1025295246       -2.8728867930      -13.4030286995
 C        -8.6078557028       -3.1293169530      -15.1871212969
 C        -8.6641310171       -1.6038121037      -15.2257538324
 C       -10.0363225701       -1.1175418455      -15.8026567063
 O       -10.7634230097       -1.8382486435      -16.4417652251
 C       -10.4362378491        0.3589559772      -15.5776814553
 C       -10.4707499759        0.5340472593      -14.0048732543
 O        -9.5556146938        1.0686479783      -13.3747461462
 C       -11.6856651819        0.0372345018      -13.2226136797
 C        -9.3161340706        1.2219968285      -16.1951962087
 C       -11.8796199052        0.6299770279      -16.1704086164
 C        -7.8295721415       -6.1311757716      -15.1226066931
 C        -7.2372589071       -5.7696992264      -12.5977253803
 C        -0.4241317895       -5.6095458415      -14.9235577228
 C        -1.5676817745       -7.7841318734      -15.3521811949
 C        -1.7426552819      -10.3571479374       -8.1956991307
 C        -2.5513014986       -7.9842635475       -8.3464120597
 C         3.7679099221      -12.0916664950       -7.8711475039
 C         3.8802651253      -11.4118442212       -5.3976270043
 C         5.9598192093       -5.4742648693      -10.1557954341
 C         5.7671336643       -5.4036726415       -7.6195888053
 C         1.3406595610       -0.7194749737      -10.7705689301
 C         2.3118889746        1.1816332289       -9.2887344177
 C        -4.3075390610        2.6441428161       -5.7181647466
 C        -3.9369316878        0.0886701604       -5.5325652072
 C       -11.2149299880        2.5470970418       -5.4973863726
 C       -11.2115095779        1.7358739482       -7.8747777329
 C        -5.0704577970        7.4511020152       -5.4557021570
 C        -6.6106939461        8.1351762050       -7.2892983201
 C        -0.6611528467        7.4834806144      -12.4109820382
 C        -3.2536688908        7.9111468872      -12.6172234544
 C        -6.6879496375        3.0757150343      -14.2440788467
 C        -7.2114130826        3.9414564313      -11.8827734499
 H        -7.2385173569        0.8623945793      -12.8889529121
 H        -6.7229838309        0.3492327897      -11.3043288853
 H        -5.9340456656       -0.2711819152      -12.6994919360
 H        -3.7766978042        3.3384453967      -14.3304300844
 H        -3.3205644782        2.8507497340      -12.7721025431
 H        -2.8722770124        5.6976143425      -14.1727148463
 H        -1.5637223858        4.6532311276      -13.6494239152
 H        -4.3438482301        6.6746354172      -10.3725922905
 H        -3.9269292527        8.3472135995      -10.2233206327
 H        -4.1615762104        8.2913851480       -7.8865187891
 H        -2.8721750400        7.0602793116       -7.9342360363
 H        -8.2237858284        5.7926848513       -7.6646920476
 H        -8.6903923957        6.7740705017       -6.2434242695
 H        -9.9177908976        5.0926157885       -5.1775770322
 H        -8.6422501651        4.0583410774       -5.1943945224
 H        -7.5609929109        2.8028606108       -7.0255961805
 H        -8.0839047073        1.6424682010       -8.3801292281
 H        -6.9499338049       -0.2811404228       -7.1565506330
 H        -6.6645241232        0.7759563042       -5.7935872522
 H        -1.6420420749       -0.2248825330       -7.0456676634
 H        -1.0195604711        1.0950340503       -5.9465281942
 H         0.6006506676        1.4969291421       -7.5404165044
 H        -0.6810073594        1.8191623520       -8.7686936759
 H         3.4054256516       -2.4539708165      -10.1392596528
 H         1.9404194521       -3.1065617452       -9.6601612018
 H         2.6696460237       -3.9254360007       -7.6078549639
 H         4.4015985494       -3.4634832089       -7.8312196280
 H         6.2416019883       -8.2231110109       -7.6518973879
 H         6.5676337800       -8.3865157548       -9.4228282995
 H         5.9895786760      -10.6454900165       -7.9505516424
 H         4.8230766629      -10.2788147120       -9.2208083707
 H         2.2410111401       -8.5866400921       -6.1923990807
 H         1.6752778464       -9.7078844467       -4.9702107765
 H        -0.2928590813       -8.2361936480       -5.3771200795
 H        -0.5354638390       -9.9475405790       -6.1617488873
 H        -1.7043689509       -7.2421447405      -10.9946808350
 H        -2.7294559380       -8.6004818862      -10.8723749553
 H        -1.9067989347       -9.0155292594      -13.1088186010
 H        -0.1879464580       -9.3043318356      -12.2895997096
 H        -3.0902899429       -4.6645694087      -15.1982772566
 H        -2.1993773011       -3.9006557126      -13.7885514025
 H        -4.7314759744       -3.3419492643      -13.5644201202
 H        -4.5244845542       -4.6315731359      -12.4139133283
 H        -9.5345577353       -3.6133030934      -14.8991365320
 H        -8.3748872379       -3.4744156560      -16.2305530765
 H        -7.8228644481       -1.1326797329      -15.6230154719
 H        -8.6369207273       -1.2308902562      -14.1754730570
 H       -11.5581470731       -1.0188666082      -12.8602068659
 H       -12.6080581285        0.0490828649      -13.7867734120
 H       -11.8194420646        0.6023067124      -12.2898954263
 H        -8.3861616117        1.3117958569      -15.5874116944
 H        -9.5585316892        2.2482441733      -16.3452032526
 H        -9.0389681700        0.8934002476      -17.2004485075
 H       -12.5225187732       -0.2274347590      -15.8592684164
 H       -11.7777945112        0.7040151234      -17.2201268414
 H       -12.3091809851        1.5471854226      -15.9140226540
 H        -8.8777061354       -6.1626922441      -14.7343086744
 H        -7.5794821000       -7.1975048660      -15.1597030261
 H        -7.7908306840       -5.6532460301      -16.1222363316
 H        -6.9786097023       -5.0076505400      -11.8579044339
 H        -6.8062026084       -6.7768812074      -12.4279906867
 H        -8.2802466861       -5.9466954874      -12.4629276444
 H        -1.0540855367       -5.1336843789      -15.7018843637
 H         0.4954649860       -5.9826972143      -15.3511808577
 H        -0.1581244476       -4.9269906740      -14.1167655917
 H        -1.3317933800       -7.5316302807      -16.3615959457
 H        -2.5942870249       -7.9894443122      -15.4278300206
 H        -1.1154178841       -8.7691332041      -15.1530027878
 H        -2.2881369650      -10.7318094029       -9.0749613979
 H        -2.4046092234      -10.3923385620       -7.3269520429
 H        -0.7931487545      -10.8961563484       -8.1381198286
 H        -3.2736898295       -8.2643034140       -9.1508005980
 H        -2.4119085137       -6.8938558796       -8.4428371955
 H        -3.1469520670       -8.1694304441       -7.4245666942
 H         3.7034848160      -11.7256159162       -8.8609873871
 H         2.9775860208      -12.8534072629       -7.9276492407
 H         4.7047327752      -12.6347975774       -7.7256172512
 H         4.8615407032      -11.9813063445       -5.4460531514
 H         3.2193560735      -12.1112593218       -4.9280851295
 H         4.0338621236      -10.4516430719       -4.8607625755
 H         6.9145112317       -6.0462309027      -10.0638690797
 H         6.1668706413       -4.3967663381      -10.1577514710
 H         5.5407445047       -5.5827358374      -11.1339312303
 H         5.1263618923       -5.3283824914       -6.7408074559
 H         6.2751439291       -4.4101206317       -7.6592847871
 H         6.4675361820       -6.1119339748       -7.3678371788
 H         0.8062587482       -1.6696274470      -10.8929037294
 H         2.4146491385       -0.8638563380      -11.2061251469
 H         0.8063964442        0.0171709689      -11.4275712978
 H         3.2065717697        1.1968917443       -9.8978651876
 H         2.6789627056        1.4686245017       -8.3159639492
 H         1.6451026063        2.0083711159       -9.6128695710
 H        -5.3299155071        2.5876135188       -5.3752563232
 H        -4.2619900988        3.4947629193       -6.3677102411
 H        -3.6798081460        2.5595671163       -4.8270206091
 H        -4.8547801358       -0.2907118581       -5.0986077009
 H        -3.1388858352        0.2862208607       -4.7746791826
 H        -3.6359404784       -0.8554793951       -5.9556563672
 H       -11.8704015450        3.3760998994       -5.6413716967
 H       -10.6173498704        2.6386377566       -4.6121518039
 H       -11.9076954069        1.6998688062       -5.3024455147
 H       -11.4388977914        2.5863030547       -8.5015067294
 H       -12.1262029724        1.2150841659       -7.5460286782
 H       -10.5990233778        1.1338708100       -8.4946175188
 H        -5.6653086540        7.9828926589       -4.7592891546
 H        -4.2223288263        8.0302335281       -5.7850277487
 H        -4.7034997154        6.5380952747       -4.9868509814
 H        -7.1058304654        7.8329855985       -8.2414131848
 H        -5.8520758624        8.9743632556       -7.6008549795
 H        -7.4366485151        8.5819368883       -6.6727477205
 H        -0.6089398233        8.3104244186      -13.1133982858
 H        -0.3818914953        6.5661520813      -13.0375074905
 H         0.0758747753        7.6430320347      -11.5745132919
 H        -4.1801089779        7.4574119363      -12.2992906717
 H        -3.1260894528        7.7309116297      -13.7437586039
 H        -3.1191650153        8.9735739147      -12.5476180528
 H        -5.9578060995        2.4691045383      -14.7830157180
 H        -6.9030836290        4.0255203571      -14.7821842069
 H        -7.5942247507        2.4596264748      -14.2783318177
 H        -7.3909424483        4.9390030626      -12.2326090722
 H        -6.8715120481        3.9597311310      -10.9438275277
 H        -8.0836684997        3.3869662878      -11.6547529357
 Na       -4.1946010954        3.5610103032       -9.7921639863
 Na        1.6461586718       -7.2863330132      -10.2193865260
