232

 C        -6.5037992529        0.7151341438      -12.2308090936
 C        -5.6577108010        1.9636833026      -12.0934671516
 O        -4.5717550531        1.8888857675      -11.4709530223
 C        -6.0200402052        3.2897256188      -12.7265033997
 C        -4.8843902276        4.3072240567      -12.9047589424
 O        -5.0890474946        5.4289162120      -12.5692229893
 C        -3.6104178059        3.7865610921      -13.4822253085
 C        -2.4578302842        4.9026211601      -13.3966592885
 C        -2.4537407506        5.5227400778      -12.0306812357
 O        -2.5445187797        4.9476522222      -10.9807837981
 C        -2.2287706589        7.1764769944      -11.9475626164
 C        -2.3883419712        7.6486357252      -10.3881744187
 O        -1.4135378164        7.6814966574       -9.7058845599
 C        -3.8840448035        7.4270686420       -9.7905208844
 C        -3.8763116823        7.3875958319       -8.2825495230
 C        -5.0130117766        6.4083227840       -7.8441596414
 O        -5.1975514151        5.3262821932       -8.3383333275
 C        -5.8498658145        6.8904862945       -6.6295545651
 C        -6.7861882323        5.6141159739       -6.2040006172
 O        -6.3095703656        4.6418663837       -5.7248242123
 C        -8.3277326692        5.8261230000       -6.3952508389
 C        -9.1080897628        4.5855692368       -5.9771762581
 C        -9.8668476076        3.8690186693       -7.0990819609
 O       -10.0546884239        4.3112988982       -8.2256636943
 C       -10.3711213800        2.4958283686       -6.6508928056
 C        -9.0572490358        1.5814219294       -6.3446817301
 O        -9.1302095104        0.7758715989       -5.4133204210
 C        -7.8267735969        1.7293865991       -7.3195094435
 C        -6.6423141829        0.8894488248       -6.8523453921
 C        -5.3266115279        1.3358140769       -7.4688675369
 O        -5.3181906730        1.6052805770       -8.6545383831
 C        -4.0341855384        1.3423789964       -6.5755645806
 C        -2.7150735015        1.5497590401       -7.4346359932
 O        -2.7398484648        2.3400882746       -8.3429773317
 C        -1.4623912859        0.9061645349       -7.0059104684
 C        -0.2338479153        1.2871091984       -7.7904550374
 C         0.2166359052       -0.0550129888       -8.6608742330
 O        -0.6100424387       -0.9404113214       -8.7602496831
 C         1.6390809355       -0.2250910968       -9.4172858752
 C         2.3502143447       -1.3634617862       -8.5182316408
 O         2.4790529948       -1.2487439802       -7.3282855011
 C         2.6657022166       -2.6684301584       -9.3269911363
 C         3.3281393482       -3.8128726006       -8.5087636820
 C         3.7419831574       -5.0976340489       -9.2078398794
 O         3.0381898950       -5.3512707320      -10.2214828314
 C         5.0484022995       -5.9013627636       -8.9583789166
 C         4.8278293750       -7.4480598044       -9.0320980264
 O         3.7473530619       -7.9356782472       -9.3441543667
 C         5.9408329257       -8.4703675134       -8.6882146073
 C         5.3041159407       -9.8082061547       -8.3422510114
 C         4.2760963944       -9.7929118202       -7.2614273161
 O         4.2223169510       -8.8002244747       -6.5619473395
 C         3.4626188342      -11.0123630667       -6.8764707603
 C         1.9964031788      -10.6997303117       -6.8338586542
 O         1.1740594036      -11.3547051353       -7.4108036791
 C         1.5131658359       -9.5244078027       -5.8954437120
 C         0.1217304646       -8.9142186701       -6.1146908483
 C        -0.1467281786       -8.3581987376       -7.5079845966
 O         0.5160432819       -7.3940040650       -7.9871009531
 C        -1.3581305130       -8.9443344914       -8.4197435813
 C        -0.7940752447       -8.8937481035       -9.9103721509
 O         0.3635520158       -9.2077826635      -10.0852278603
 C        -1.7414921058       -8.3531658031      -10.9735842131
 C        -1.1182145534       -8.4741315738      -12.4197301232
 C        -0.4914759721       -7.2139830127      -13.0608170292
 O         0.4189586861       -6.6950660487      -12.4826365493
 C        -1.2372443267       -6.5678781860      -14.2391320972
 C        -2.6419133701       -6.1020900606      -13.6011911448
 O        -3.2514449759       -6.8930285542      -12.9058829485
 C        -3.0854192099       -4.6756306846      -13.9527794297
 C        -4.5008740725       -4.5003620766      -13.5902112884
 C        -5.5428884199       -5.3201209609      -14.4323052072
 O        -5.1145942016       -6.0661530084      -15.2721833168
 C        -7.1492404777       -5.1549326627      -14.1928061878
 C        -7.5343498417       -3.7209095772      -14.1707131274
 O        -7.0680381907       -3.0400928510      -13.2617454807
 C        -8.4253862947       -3.1315487707      -15.3209336451
 C        -8.7159547462       -1.6288609718      -15.0378988062
 C       -10.0049273511       -1.1417484564      -15.7448661711
 O       -10.7076356582       -1.8872401905      -16.3431177689
 C       -10.4417317195        0.3956325553      -15.5400276266
 C       -10.4135734373        0.5179935697      -14.0029442266
 O        -9.4153617047        0.9191686564      -13.4269732738
 C       -11.5984173205       -0.0599400981      -13.1810623576
 C        -9.3345377798        1.2976322990      -16.0823700036
 C       -11.8262437520        0.6639652805      -16.1258417020
 C        -7.8201402537       -6.0032325050      -15.2500065888
 C        -7.3509677644       -5.6695210559      -12.7287405129
 C        -0.3129183701       -5.4634625501      -14.7906165544
 C        -1.5462103460       -7.6491753208      -15.3016313334
 C        -1.8422104308      -10.3369208637       -7.9386379139
 C        -2.6253060863       -8.0758023905       -8.0756047984
 C         3.6148949579      -12.2118237751       -7.8740145777
 C         3.8517958568      -11.4523692290       -5.3907593404
 C         5.9993044876       -5.5239586256      -10.1392721409
 C         5.7827871206       -5.4237924720       -7.6935821209
 C         1.3356136693       -0.6253747224      -10.8410077153
 C         2.4013217047        1.1046413313       -9.5056810603
 C        -4.2068535256        2.5725694249       -5.6962119960
 C        -4.0477291174        0.1254585053       -5.6116856747
 C       -11.1437028253        2.5629879572       -5.3460073656
 C       -11.0774927472        1.8155984978       -7.9023730794
 C        -4.8422412384        7.4636867658       -5.4912580631
 C        -6.6383184736        8.1266882995       -7.2162520094
 C        -0.7770656664        7.6256578032      -12.3518613695
 C        -3.2256189090        7.9605960040      -12.7442686297
 C        -6.6473403948        3.1159133025      -14.1848284944
 C        -7.1341742468        3.9907967432      -11.9338350530
 H        -7.3667309664        0.7689376736      -12.9024501709
 H        -6.8322720088        0.3001151382      -11.2761149147
 H        -5.8326604631       -0.1090936830      -12.6443710212
 H        -3.7332919381        3.4427027920      -14.5375529236
 H        -3.4164589062        2.8806763858      -12.9874961235
 H        -2.5286348849        5.6189793052      -14.2253941473
 H        -1.4838576914        4.4066050128      -13.4010087054
 H        -4.0438547895        6.4032451276      -10.0989075645
 H        -4.6653487352        8.0793310959      -10.2630717649
 H        -4.0827805599        8.2149548632       -7.6504438605
 H        -2.9280919464        6.9178248292       -7.9226258459
 H        -8.4327358146        6.0521342486       -7.5439760770
 H        -8.7514076263        6.6621007424       -5.8967501995
 H        -9.8826015548        4.8202536073       -5.1704438199
 H        -8.5200685096        3.9170030703       -5.3535393672
 H        -7.7129325798        2.8288470855       -7.4026195604
 H        -8.1029390592        1.2937917953       -8.2834683649
 H        -6.8894801858       -0.1265051384       -7.1269524705
 H        -6.6207963818        0.9359526597       -5.7275496664
 H        -1.6182590415       -0.1873315531       -6.8770550162
 H        -1.3269971935        1.2725632019       -5.9435790213
 H         0.6323169319        1.4722918887       -7.1650537626
 H        -0.5870285648        2.0345455052       -8.4947913007
 H         3.3991218878       -2.5870008470      -10.1030542101
 H         1.8432113677       -3.0861487226       -9.9751257143
 H         2.7067163653       -3.9392322194       -7.6039482245
 H         4.3075072902       -3.4151642552       -8.1636141924
 H         6.5487025656       -8.2474747102       -7.8147642868
 H         6.6387484573       -8.6010221202       -9.5402113078
 H         5.9136950412      -10.6441219644       -7.9508304908
 H         4.8426540743      -10.1329983071       -9.3067589213
 H         2.1720421835       -8.7666992680       -6.0393164266
 H         1.5454181385       -9.8499963238       -4.9015071323
 H         0.0905870548       -7.9875635151       -5.4091637336
 H        -0.6261753747       -9.6604260888       -5.7901947192
 H        -2.0358383885       -7.3520918166      -10.7254300558
 H        -2.7354915958       -8.8689475656      -10.9487408127
 H        -2.0984525890       -8.7456965082      -12.9707546170
 H        -0.3282833830       -9.1161093190      -12.3853618141
 H        -2.8811385828       -4.5887055938      -15.0699178554
 H        -2.4022487057       -4.0141136349      -13.4180277586
 H        -4.6843938281       -3.4337379701      -13.4498217527
 H        -4.6531802963       -4.9083592066      -12.5399090367
 H        -9.3170450539       -3.8268564027      -15.4614722208
 H        -7.8178667866       -3.1739622203      -16.2820386907
 H        -7.8167582487       -0.8855197978      -15.1937864477
 H        -8.8290932527       -1.4584405002      -14.0000998729
 H       -11.5639221199       -1.1433925926      -13.1038747015
 H       -12.6067629534        0.1724047072      -13.5780708398
 H       -11.5849553697        0.2970556093      -12.1023392328
 H        -8.3638278797        1.1797128408      -15.6468002291
 H        -9.5576333473        2.3471890167      -15.8760423300
 H        -9.2602010301        1.2863584551      -17.1116815719
 H       -12.4352875742       -0.2310743801      -15.9913067368
 H       -11.6560138771        0.8801125748      -17.2075459012
 H       -12.3304016388        1.5302292156      -15.7235400892
 H        -8.8485164931       -6.0582651260      -15.0852292445
 H        -7.4583248524       -7.0754235804      -15.1323920901
 H        -7.6292491734       -5.6025106090      -16.2564457000
 H        -7.1678144203       -4.8579175202      -12.0025335481
 H        -6.7999030946       -6.5472305605      -12.5871832794
 H        -8.3505839686       -6.0780095742      -12.5428113419
 H        -0.8888827294       -4.8685203737      -15.4501161818
 H         0.4379327812       -5.9399462383      -15.3765709875
 H         0.1636292468       -4.8670822584      -13.9891261357
 H        -1.2387071682       -7.3045688679      -16.3054925375
 H        -2.5908784938       -7.8833421765      -15.5308105379
 H        -1.0471995452       -8.5706357906      -15.1584870278
 H        -2.7665759451      -10.6436164047       -8.5335578903
 H        -2.2261588744      -10.1416884612       -6.9539846277
 H        -1.0647871567      -11.0630185283       -8.0247751435
 H        -3.5049186727       -8.2570080105       -8.6688592290
 H        -2.4393025219       -7.0406484228       -8.2193361491
 H        -2.9524046332       -8.2131352726       -7.0546226820
 H         3.4058115607      -12.0290008321       -8.9723360520
 H         2.7109231417      -12.8343367757       -7.6400027707
 H         4.4916152730      -12.8837522667       -7.7727666788
 H         4.9251865257      -11.5766119773       -5.2514060922
 H         3.4340732966      -12.4342998400       -5.3112129501
 H         3.5124224558      -10.7279100319       -4.6754550417
 H         6.8492534443       -6.1521715141      -10.2261002692
 H         6.3378900511       -4.5319858407       -9.9248540227
 H         5.5051651093       -5.3321057866      -11.0993428142
 H         5.0947098323       -5.2632873974       -6.7886628259
 H         6.3058405479       -4.5073860247       -7.8426783912
 H         6.5348283065       -6.1178143458       -7.3319626622
 H         0.7057121837       -1.5246443198      -10.9444027067
 H         2.3159580034       -0.8769450774      -11.1874859281
 H         0.8493976690        0.0956705012      -11.5406861894
 H         3.1418238282        1.1343886944      -10.2733829345
 H         2.9018613679        1.3598920392       -8.5585760018
 H         1.6796761541        2.0140069289       -9.6868169076
 H        -5.2800751067        2.5213238126       -5.4452996601
 H        -4.1223653505        3.4922630159       -6.3068955687
 H        -3.6447427802        2.4950164790       -4.7837759269
 H        -4.9598985797        0.0277148957       -5.0332104319
 H        -3.1483284071       -0.0265046871       -5.0104000795
 H        -4.1301094082       -0.8132316341       -6.0712750610
 H       -11.9222767994        3.3681703309       -5.4084105932
 H       -10.4822562484        2.7114808225       -4.5148267610
 H       -11.7264703175        1.6398678639       -5.1008308460
 H       -11.1566291450        2.5489833016       -8.6591835013
 H       -12.0822450458        1.4726080733       -7.6121842492
 H       -10.4659783414        1.0092557413       -8.3103357790
 H        -5.2793214346        8.2935552979       -5.0171804055
 H        -3.9181486008        7.8191261256       -5.9837739932
 H        -4.5205467908        6.6899734243       -4.7798754116
 H        -7.3682508099        7.8626688294       -8.0531016565
 H        -5.9815294254        8.8805804548       -7.6088379702
 H        -7.2894603579        8.6127243735       -6.4150546306
 H        -0.8060218856        8.4733568952      -13.0583334039
 H        -0.2531345342        6.8397693983      -12.9188314540
 H        -0.2365161440        7.9264961038      -11.4914929230
 H        -4.2250591959        7.6899996067      -12.4773669495
 H        -3.0216798477        7.7895822972      -13.8260631263
 H        -2.9430417881        8.9981932876      -12.6779308096
 H        -5.8477536500        2.9189666485      -14.8944719201
 H        -7.0395619533        4.0814151045      -14.4240043170
 H        -7.3689024720        2.3462560843      -14.3666045475
 H        -7.4134837624        4.8399398845      -12.4534675331
 H        -6.9083693979        4.2722018105      -10.9103653215
 H        -7.8971239748        3.2929521966      -11.7218554707
 Na       -4.3010126369        3.5601895232       -9.9017269743
 Na        1.5992774801       -7.3063405518      -10.1768146909
