232

 C       -21.5683790059       -7.8612698404       -3.5894870844
 C       -20.7113449987       -6.5901304744       -3.7219027909
 O       -19.6665676917       -6.5406190598       -3.0615261492
 C       -21.3388198822       -5.4848287297       -4.6657370866
 C       -20.4955811332       -4.1795408626       -4.5143619537
 O       -20.2456025842       -3.8805628879       -3.3342674619
 C       -20.0822120379       -3.2789573461       -5.6460347884
 C       -18.7648912883       -3.6715471176       -6.4424798409
 C       -17.5612023434       -4.0443827118       -5.5021805985
 O       -17.6565406769       -5.0841344484       -4.8680509249
 C       -16.2902497612       -3.2191629077       -5.2218876506
 C       -16.4220918031       -2.8531331590       -3.6848248569
 O       -17.5076200599       -2.4124725610       -3.3111195445
 C       -15.2417589517       -3.0107256826       -2.7390628018
 C       -15.4327730650       -2.7099685316       -1.2413646892
 C       -15.8048294944       -4.0242534347       -0.5333998675
 O       -16.5253954510       -4.9076729195       -0.9919547776
 C       -15.2550563426       -4.2591845562        0.9374734601
 C       -13.7687288992       -4.8021334536        0.6891961027
 O       -12.7652248319       -4.1401533695        0.9980496780
 C       -13.7476788678       -6.2301961101        0.1468019335
 C       -12.3383741369       -6.6715812126       -0.4178691788
 C       -12.3149463537       -6.7330531315       -1.9595577485
 O       -12.9871887190       -5.8871290870       -2.5668728490
 C       -11.5692787076       -7.9513616259       -2.7024779395
 C       -10.0232452841       -7.4649669793       -2.9228851396
 O        -9.2895465354       -7.2340546096       -1.9532925881
 C        -9.5967063920       -7.4042311448       -4.3768764629
 C        -8.0576723207       -7.0948484422       -4.6959353936
 C        -7.4262463246       -5.6358736191       -4.8214548111
 O        -8.0253295929       -4.8227296215       -5.4364024821
 C        -6.0259379196       -5.2903573688       -4.1857735194
 C        -5.0220165534       -5.7952379475       -5.2811563262
 O        -4.9039998946       -6.9825936536       -5.5514466105
 C        -4.1339545915       -4.7857995108       -6.1076653058
 C        -2.6765945744       -4.7642658421       -5.6522087061
 C        -1.9008157693       -3.6480887373       -6.3443691586
 O        -2.4727102694       -2.5948850274       -6.6122229618
 C        -0.4033016085       -3.8881991348       -6.5812270577
 C        -0.3869312282       -5.2228403868       -7.4817168405
 O        -0.0115474281       -6.2091439840       -6.8895209185
 C        -0.9855767764       -5.1917145498       -8.8800881138
 C        -0.2225286414       -5.8497030380      -10.0182938161
 C         0.8245503917       -5.0225838164      -10.7069302341
 O         1.0320789661       -3.8744514707      -10.2236884835
 C         1.6581224947       -5.6043083662      -11.8005054443
 C         1.7333554937       -4.5868882074      -13.0764852470
 O         1.1167420512       -4.8305080158      -14.0760489158
 C         2.6544046687       -3.3424716281      -12.9944162970
 C         2.7961570806       -2.5908112716      -14.3653463651
 C         2.9280446917       -1.0830122366      -14.2099051964
 O         2.1357621806       -0.2647171512      -14.4561898127
 C         4.4374198388       -0.5023056161      -13.6169727244
 C         4.7287315712        0.7667036189      -14.5129710244
 O         5.6552235376        0.7599593535      -15.3062359905
 C         3.9392284634        2.0429772234      -14.2269440777
 C         4.6747769471        2.7710503349      -13.1164476138
 C         5.6234888874        3.9191540785      -13.5301981603
 O         6.0245160730        3.9939876858      -14.6806245583
 C         6.1523353144        5.0571005239      -12.5992030979
 C         6.8099820887        6.2764343178      -13.1790887412
 O         6.6903438139        7.3502497457      -12.6601440989
 C         7.6986441246        6.2147516545      -14.4573595636
 C         7.0226899056        6.9099871417      -15.6839690589
 C         6.6618543704        6.1551966838      -16.9685613317
 O         6.6159373620        4.9480606694      -17.0085135973
 C         6.2784542586        7.0974563916      -18.3410947576
 C         7.3004336947        6.7004759842      -19.5837895980
 O         7.6921050706        5.5599355436      -19.5281103714
 C         7.6023469074        7.5061779392      -20.8038873502
 C         8.6972087153        6.7580018308      -21.6611635974
 C         8.1787320180        5.3778594617      -22.1415908762
 O         7.0254613094        5.0313064609      -21.8681408995
 C         9.1582539773        4.4665349901      -22.8736377626
 C         8.9782094748        3.0901439217      -21.9846097788
 O         8.4278053119        2.1246552881      -22.4180215762
 C         9.5421088682        3.0196085920      -20.4955958922
 C         9.3811426354        1.5654182919      -20.0312481787
 C         8.3666982959        1.3941586833      -18.9052681818
 O         8.1727395398        2.2954392011      -18.0876562057
 C         7.4644930793        0.1361136086      -18.9747131056
 C         6.0161386578        0.5882583783      -19.4058903273
 O         5.4402013399        1.3544283839      -18.6087694687
 C         5.5175250136        0.1344264889      -20.8970501596
 C         8.0547024506       -0.9415858563      -19.9520648253
 C         7.4400416953       -0.6249133784      -17.6409406424
 C         8.6338032677        4.3632103435      -24.3505264744
 C        10.6174607657        5.0495699432      -22.9143534300
 C         4.8102859210        6.5521817883      -18.7771491126
 C         6.3618851631        8.5671634575      -18.0769328011
 C         5.1924484155        5.6798778444      -11.5570215181
 C         7.3378019050        4.3570699553      -11.7214296524
 C         3.9799579603       -0.2464638482      -12.1163973260
 C         5.5899375971       -1.4668221081      -13.7165512086
 C         3.0894952671       -5.6765927224      -11.1744795976
 C         1.4689416162       -7.0214796245      -12.3488822028
 C         0.2411582779       -2.6387746702       -7.1699891875
 C         0.3795917273       -4.2922657929       -5.2289828823
 C        -5.9896748308       -3.7547581836       -3.7839863289
 C        -5.8853553495       -6.1748977428       -2.9170075876
 C       -11.7743099980       -9.3268777213       -2.0482854473
 C       -12.4525319630       -8.1450190938       -4.0300504590
 C       -15.0758676259       -2.9735007395        1.8866933619
 C       -16.0474268707       -5.3358535208        1.6757766192
 C       -15.1029606095       -4.2214771662       -5.5351582089
 C       -16.2791801906       -1.9573336787       -6.0319928145
 C       -21.2021372924       -6.1103182052       -6.1876647828
 C       -22.8446586100       -5.1352772756       -4.4868065235
 H       -21.9513946843       -8.1387976463       -4.4912443591
 H       -22.4603353390       -7.7562815143       -2.9993598474
 H       -20.8812719717       -8.5534282368       -3.1765754934
 H       -20.0071889597       -2.2256072315       -5.3308247968
 H       -20.9233411653       -3.2802409919       -6.4028782400
 H       -18.4119918948       -2.8173335078       -7.0033548119
 H       -18.9034202092       -4.5263209993       -7.0876724280
 H       -14.5072564725       -2.2890389629       -3.1764497003
 H       -14.7496850500       -3.9676599824       -2.7735708108
 H       -16.1698095950       -2.0010167529       -0.9429395503
 H       -14.4298618178       -2.4192798083       -0.7599805836
 H       -14.4573526461       -6.2458135186       -0.7062656500
 H       -14.0813982152       -6.9082936786        0.9230452572
 H       -11.8503908539       -7.5147231956        0.0781434350
 H       -11.6436082372       -5.7769432001       -0.1227232261
 H       -10.2536723276       -6.6158496636       -4.7915646503
 H        -9.8781710759       -8.2975482460       -4.9796774107
 H        -7.8029787678       -7.5510396669       -5.7421394808
 H        -7.5286817272       -7.7831340462       -4.0496362801
 H        -4.5477606060       -3.8075736417       -6.2150533046
 H        -4.1853804894       -5.2292861628       -7.0767353977
 H        -2.1947043910       -5.7107701554       -5.9361659539
 H        -2.4216710563       -4.6514650086       -4.5670666981
 H        -1.1864090940       -4.0870676270       -9.0322654179
 H        -1.9608685575       -5.6801892124       -8.7947781634
 H        -0.8455570237       -6.3337577566      -10.7220244467
 H         0.3363164396       -6.6962798009       -9.5172882412
 H         3.6419966574       -3.4390643044      -12.6279736398
 H         2.2418905687       -2.7255136648      -12.1649599132
 H         1.9693478214       -2.7016408660      -15.0007902175
 H         3.6179777664       -3.0021896594      -14.9667924148
 H         2.8044516317        1.9343082082      -14.0973579786
 H         3.8887809670        2.7138937718      -15.1309940734
 H         5.3062460203        2.0709423555      -12.6485736966
 H         3.9715121187        3.1388127847      -12.4043787868
 H         8.0793110386        5.2194960484      -14.7285490798
 H         8.5672337881        6.8525037090      -14.1961230037
 H         7.6651190075        7.7438057203      -16.0239400462
 H         6.0653382546        7.5325229691      -15.3220190174
 H         7.8814169308        8.5350143965      -20.4889640842
 H         6.7077642585        7.8055738801      -21.3620600104
 H         9.4828591686        6.5841132722      -20.9501841786
 H         9.0334453323        7.2042157802      -22.6437695873
 H         9.1005469172        3.7980059710      -19.8095791621
 H        10.6478244169        3.0732747835      -20.5262312082
 H        10.3307417680        1.3101921577      -19.6344139608
 H         9.2659127095        0.9222152852      -20.9579278446
 H         6.3015050483       -0.1259363381      -21.5114201991
 H         4.9852225036        0.9535356632      -21.4276982623
 H         4.7854307750       -0.7121958750      -20.9331090710
 H         7.4228455109       -1.8055652182      -20.0184147471
 H         9.0219581076       -1.2628903401      -19.5370060405
 H         8.2770942509       -0.5859999062      -20.9000406884
 H         8.2878552896       -1.3325868832      -17.6347072319
 H         6.4495102206       -1.1181966488      -17.3605540647
 H         7.6288260915        0.1095042987      -16.7608661165
 H         9.3652770901        4.3128087142      -25.1636661368
 H         8.1312735777        5.3480841424      -24.4698914613
 H         8.0445230816        3.4312713352      -24.6082142103
 H        11.2759035279        4.4706473930      -23.5745569753
 H        11.0490860494        5.0364494528      -21.9340800672
 H        10.7206980161        6.0819693076      -23.3066327571
 H         4.0387899252        7.2600824353      -18.4744293046
 H         4.7387080597        5.5394317605      -18.4590527556
 H         4.7982619217        6.5227189287      -19.8947210304
 H         7.3956742242        8.8767762734      -17.8215174008
 H         5.7803339057        8.9639333916      -17.3056703979
 H         6.0817549542        9.1865853828      -18.9423952860
 H         5.3829975333        6.6236922296      -11.1807994249
 H         5.0651175473        5.0389252038      -10.6821584132
 H         4.1923189596        5.8922448970      -11.8905693237
 H         7.1041672017        3.4253784397      -11.2992489311
 H         7.5117574381        5.0421507059      -10.9444767324
 H         8.2273439320        4.1208708245      -12.3210301876
 H         4.7949035884        0.0375196847      -11.5320391543
 H         3.7491669868       -1.2203938820      -11.7780774695
 H         3.0545463151        0.3610246859      -11.8805218629
 H         5.4613481909       -2.0892504643      -12.8376561449
 H         6.4280713565       -0.9111001810      -13.5005486266
 H         5.4928747435       -2.0012999406      -14.6553424309
 H         3.1666712408       -6.6606240410      -10.6086343575
 H         3.2969973741       -4.8680908042      -10.5144124989
 H         3.8778816223       -5.8244987406      -11.9258899150
 H         0.4020174352       -7.2769085034      -12.5418433784
 H         1.7821724867       -7.6968080754      -11.5885758835
 H         2.0290549864       -7.2267422747      -13.2294833000
 H         0.1936931766       -1.9489146812       -6.2582495933
 H        -0.2987705854       -2.2030966952       -8.0382333275
 H         1.2849861810       -2.8490256721       -7.3722838006
 H        -0.0121743720       -5.2248316872       -4.8337231370
 H         0.1703328095       -3.4378808611       -4.5566100268
 H         1.4640345456       -4.3242527183       -5.3598172186
 H        -6.4678615596       -3.1349872129       -4.5657784791
 H        -4.9651506307       -3.4186531149       -3.5494672179
 H        -6.5641136747       -3.6948365038       -2.8981713624
 H        -6.8137363409       -5.9853845798       -2.4166494498
 H        -5.0706685249       -5.8030803404       -2.3017809787
 H        -5.7738074374       -7.2697703638       -3.0898269417
 H       -12.7721282411       -9.4716236505       -1.6385757091
 H       -10.9931644101       -9.5929205172       -1.3772542141
 H       -11.7669631988       -9.9876406370       -2.9298114082
 H       -13.2963561871       -8.8745880918       -3.8563403964
 H       -11.9297561181       -8.5383002934       -4.9150486890
 H       -12.7769758946       -7.2212297829       -4.3816950436
 H       -14.8279314691       -1.9850908982        1.3321719207
 H       -14.1205224797       -3.1493718305        2.3726381253
 H       -15.9517354295       -2.7867386517        2.5102728565
 H       -17.0049831559       -5.7236530192        1.2654004365
 H       -16.2143592054       -5.0196098254        2.7717181301
 H       -15.4412267273       -6.2330129136        1.8927663839
 H       -15.3857398917       -5.2995817919       -5.5310308445
 H       -14.4737375979       -4.0773404722       -4.7494131096
 H       -14.5805261686       -3.9583907329       -6.4716539321
 H       -17.1916607733       -1.4452038779       -5.9908338455
 H       -15.9221853490       -2.0487119036       -7.0540742066
 H       -15.6077268493       -1.1459081797       -5.7133126755
 H       -20.0919946502       -6.3428804813       -6.4019242988
 H       -21.5557819349       -5.3748757358       -6.8645882641
 H       -21.7733068275       -7.0521024406       -6.1204937638
 H       -23.2454908565       -4.7054661925       -5.3414515368
 H       -23.0226724363       -4.6079777160       -3.5396389810
 H       -23.3754665699       -6.1078676999       -4.2838171252
 Na      -18.2787585171       -4.6772005287       -2.7391583433
 Na        6.3258219058        2.5530634377      -16.6995840606
