232

 C        -6.2970384038        0.7878400899      -11.9847414217
 C        -5.5868150424        2.1403766143      -11.9509033577
 O        -4.4716052558        2.1035347048      -11.4558917285
 C        -6.0328750846        3.4042861956      -12.8087342835
 C        -4.7380080656        4.3426140985      -12.9889633394
 O        -4.7642000365        5.5419527094      -12.6107277304
 C        -3.4557938553        3.8044653485      -13.6024998341
 C        -2.4649719135        4.9985480921      -13.6093633293
 C        -2.5349344422        5.7703692027      -12.2358773234
 O        -2.5186283574        5.1592390120      -11.2274307102
 C        -2.4409648394        7.3092700612      -12.1516281703
 C        -2.6455004217        7.7545836818      -10.6420996835
 O        -1.6018575153        8.0709865034      -10.1202487709
 C        -4.1146456519        7.4991148337      -10.0724080400
 C        -4.0573733395        7.1881971152       -8.5808967478
 C        -5.2383370020        6.2450800886       -8.2154532819
 O        -5.5117445393        5.2501945541       -8.8726106329
 C        -5.8996380603        6.6670385572       -6.8022216482
 C        -7.0423769235        5.6743461478       -6.3619040781
 O        -6.8362882149        4.4512523360       -6.4104639306
 C        -8.4642457407        6.1071537783       -6.0189876607
 C        -9.3193751182        4.8912805492       -5.6334261582
 C        -9.8152492655        3.9533750651       -6.7834843682
 O        -9.8053846517        4.4185964529       -7.9086722411
 C       -10.2822843992        2.4919604782       -6.5764133573
 C        -9.0231077310        1.6330972454       -6.2996519376
 O        -8.9119852839        0.9658232592       -5.3225460564
 C        -7.8340035841        1.7757679106       -7.3269716988
 C        -6.4932983494        1.6414454473       -6.6226370244
 C        -5.2103440903        2.0157906986       -7.4950289659
 O        -5.2118528754        2.7359185340       -8.4803200806
 C        -3.8211981160        1.5139504611       -6.7664968330
 C        -2.4516609433        1.6772151066       -7.6514119148
 O        -2.3659896236        2.3484116077       -8.6747784611
 C        -1.2168859486        0.9616114396       -6.9778216908
 C        -0.0164810475        1.0398744686       -7.9144854210
 C         0.2218809732       -0.3150096568       -8.6301001440
 O        -0.5954932063       -1.1766093550       -8.5521652780
 C         1.4974498530       -0.4133675106       -9.4358750934
 C         2.3595130254       -1.5702320663       -8.9825586137
 O         2.9321676550       -1.6563998586       -7.8990207106
 C         2.4522205078       -2.9805132580       -9.6550645292
 C         3.6701651933       -3.7780885156       -9.2356779578
 C         3.7922207417       -5.1855071980       -9.6970347285
 O         3.0352753952       -5.6695789096      -10.5552312797
 C         4.9927145230       -6.0548057494       -9.1710944292
 C         4.6282019478       -7.5764438899       -9.1091191633
 O         3.5002240030       -7.9519873596       -9.1847054586
 C         5.8209299826       -8.5399031021       -9.0065038829
 C         5.0843448877       -9.9032599487       -8.6119721249
 C         4.3221743850       -9.6989152641       -7.2463842891
 O         4.5230635742       -8.8067198077       -6.4550787541
 C         3.3994417202      -11.0457490346       -6.8382706082
 C         1.9980265552      -10.3811977860       -6.8243490954
 O         1.2258130563      -10.6730761376       -7.7120978072
 C         1.6313008222       -9.2549512003       -5.8776031123
 C         0.0636732291       -9.0094891125       -5.9054508111
 C        -0.2317626665       -8.6176940828       -7.3332552721
 O         0.5668435436       -7.7465930107       -7.7657685675
 C        -1.4433763453       -9.0929478140       -8.0756800672
 C        -0.9853684437       -9.2362056305       -9.5649051748
 O         0.0561372516       -9.7741012971       -9.8990252803
 C        -1.7857954941       -8.5873349830      -10.6474882900
 C        -1.1424875495       -8.6643386992      -12.0886808220
 C        -0.5173204777       -7.2007955957      -12.4202300627
 O         0.3822111620       -6.7814507553      -11.7072385525
 C        -1.1042918130       -6.3258111490      -13.4969291987
 C        -2.6586904125       -6.1907022324      -13.1092587011
 O        -3.3103574346       -6.9327159664      -12.3875652545
 C        -3.3918909188       -4.9248414535      -13.7119021857
 C        -4.8508393044       -4.8521194350      -13.4422001311
 C        -5.6621178815       -5.4109465276      -14.6730560248
 O        -5.1119102753       -5.8586206928      -15.6559625492
 C        -7.2250660314       -5.2469889804      -14.5460667053
 C        -7.5678915632       -3.7487757044      -14.2603698137
 O        -7.3669109873       -3.2818943447      -13.1615496923
 C        -7.9458840252       -2.7967825154      -15.3318725689
 C        -8.5479197397       -1.4489823297      -14.8569166322
 C        -9.8171495681       -1.1789754630      -15.6778259451
 O       -10.3426129703       -2.0213990846      -16.3815174216
 C       -10.4189732096        0.2448007826      -15.2611619619
 C       -10.5112806100        0.5548623189      -13.6823688860
 O        -9.6219441269        1.2358172833      -13.2184813219
 C       -11.5256137275       -0.1967458607      -12.8036378848
 C        -9.5184605111        1.2583419507      -16.0130446322
 C       -11.8200383310        0.4597507730      -15.9344502751
 C        -7.7172050734       -5.7687410447      -15.9329692283
 C        -7.8721533948       -6.0836387157      -13.3704623801
 C        -0.3960708325       -4.9644545717      -13.5748214333
 C        -1.0503834116       -7.0247546350      -14.8420351634
 C        -1.8491028096      -10.5026707076       -7.5189729577
 C        -2.5700131616       -8.0351099209       -8.0491108731
 C         3.4587201028      -12.1424022060       -7.8293485712
 C         3.7435259701      -11.6430963763       -5.4734783707
 C         6.0894712785       -5.9028074812      -10.2624477097
 C         5.3145774417       -5.6783226182       -7.7230215195
 C         1.1304847805       -0.6468731349      -10.9655614406
 C         2.2945855484        0.8371640111       -9.3330563180
 C        -3.7029056869        2.6806081040       -5.6961796929
 C        -3.8205470361        0.1299490283       -6.1811807857
 C       -11.2734793415        2.1773261052       -5.4477077432
 C       -10.9687980728        2.0336791278       -7.8856563212
 C        -4.7726417326        6.5346762739       -5.8064150933
 C        -6.5475746575        8.0923831708       -6.8645040882
 C        -0.9968420529        7.5645490814      -12.6309167046
 C        -3.4348660686        8.0520543752      -13.1025495851
 C        -6.4287665236        2.8821100993      -14.1603490821
 C        -7.1639734197        4.0321032850      -12.0878335020
 H        -7.3962686292        0.6861242622      -11.8387847505
 H        -5.6965121198        0.1358690584      -11.3008244088
 H        -6.1028578143        0.3409603375      -12.9616385797
 H        -3.6268783686        3.3931642114      -14.5979093050
 H        -3.0763245101        3.0266544738      -12.9738786252
 H        -2.8063860227        5.6256437469      -14.4207311119
 H        -1.4373020740        4.6395495079      -13.7354761839
 H        -4.5331265381        6.6357503586      -10.7189059947
 H        -4.7300540830        8.3906213727      -10.2594463093
 H        -3.9936118315        7.9283751080       -7.8023680591
 H        -3.1348192719        6.5763368898       -8.4131068148
 H        -8.9421803855        6.8131261356       -6.7227669227
 H        -8.2738322216        6.7159549009       -5.0790245440
 H       -10.1794026391        5.1760017996       -5.1097358355
 H        -8.7459439621        4.2379209103       -4.8626853659
 H        -7.8921550334        2.7498943828       -7.7512590769
 H        -7.9735894569        1.0407136712       -8.1583858641
 H        -6.3731353189        0.6058732092       -6.1642403463
 H        -6.4923993206        2.3474198131       -5.7903910312
 H        -1.4988411868       -0.0793756665       -6.6888106331
 H        -0.9043185655        1.4143659746       -6.0334372186
 H         0.9293494049        1.3026866595       -7.3673764265
 H        -0.1567879628        1.7324640695       -8.7532543858
 H         2.4725315917       -2.7827785615      -10.6992799370
 H         1.5588832718       -3.5726002733       -9.6360791700
 H         3.8087709537       -3.5385192682       -8.1592416441
 H         4.5199397246       -3.1591429726       -9.5660410610
 H         6.5798730851       -8.3114413528       -8.2381771955
 H         6.4941842347       -8.7206815668       -9.8616014218
 H         5.8369164557      -10.7015205472       -8.6055046109
 H         4.4179313558      -10.0826730215       -9.4921758035
 H         1.9875197081       -8.3200489932       -6.3056519725
 H         2.0797889489       -9.4213526270       -4.9448556284
 H        -0.1359469885       -8.2241505721       -5.1844045648
 H        -0.5799041797       -9.7564858646       -5.4384742482
 H        -1.9067388233       -7.5445300415      -10.3572960686
 H        -2.8000801850       -8.9986597882      -10.5946241696
 H        -1.8838024461       -8.9756179973      -12.6911510478
 H        -0.3461065611       -9.4175240848      -11.8367360634
 H        -3.2053732064       -5.1594029921      -14.8008503477
 H        -2.8163937436       -4.0307327518      -13.4729361129
 H        -5.1092520250       -3.7342551374      -13.2875768459
 H        -5.1298248686       -5.3630170789      -12.5374213435
 H        -8.7257168125       -3.2374271426      -16.0838796912
 H        -7.0421972520       -2.5682332669      -15.9588155084
 H        -7.8964431492       -0.5689035827      -14.9719346472
 H        -8.8602419404       -1.3611936416      -13.7890361312
 H       -12.2931225761       -0.6408691453      -13.4956333908
 H       -12.0296393241        0.4512474334      -12.0449986124
 H       -11.1201461514       -0.9207930121      -12.1148707022
 H        -8.5705174199        1.3439628774      -15.5566037229
 H        -9.9608381457        2.2370810495      -16.1288040546
 H        -9.2948207155        0.9153324697      -17.0497727991
 H       -12.6274565740       -0.0366894328      -15.4344701490
 H       -11.7537102037       -0.0592598280      -16.8561704907
 H       -11.9981694083        1.5448298107      -15.9231721490
 H        -8.8063519412       -5.4828891521      -16.0612487145
 H        -7.4561050750       -6.7640925067      -16.0335690501
 H        -7.3014907300       -5.2687956471      -16.7889439315
 H        -7.4209741773       -5.8516699552      -12.4396139998
 H        -7.8514535598       -7.2071091214      -13.4632443860
 H        -8.9363847058       -5.8273775317      -13.2663753983
 H        -0.6838120529       -4.3223749666      -14.4057212233
 H         0.6620416044       -5.2278423641      -13.6812279857
 H        -0.5967595527       -4.5212708626      -12.6341205329
 H        -1.9923124607       -7.0931877294      -15.3644012337
 H        -0.7136334530       -8.0597486803      -14.8133133304
 H        -0.4424768090       -6.4714956780      -15.5681080531
 H        -2.3777885428      -11.0263331153       -8.2821530461
 H        -2.5542247175      -10.4705565561       -6.6676997269
 H        -0.9108479559      -11.0605953075       -7.2745721398
 H        -3.2879786681       -8.1607156960       -8.8449580451
 H        -2.2975346705       -6.9613257383       -8.1522630263
 H        -3.1950855128       -8.0761820513       -7.1686374923
 H         3.3730177685      -11.7367682611       -8.8492520909
 H         2.6687516568      -12.9033029564       -7.7704433424
 H         4.4290257133      -12.6867040450       -7.7488296212
 H         4.4036130814      -12.4580456560       -5.6655600987
 H         2.8513825634      -11.9379173539       -4.8722712453
 H         4.3823164259      -10.9020980878       -5.0083092467
 H         6.9676563427       -6.5203656322      -10.1194730563
 H         6.4932713019       -4.8877391101      -10.2932958604
 H         5.5776011775       -6.1381819232      -11.1864179590
 H         4.5055441535       -5.9533747462       -7.1057446186
 H         5.6755582708       -4.6079233727       -7.7013309872
 H         6.1921247219       -6.2650165643       -7.3158343872
 H         0.5597850706       -1.5901425508      -11.1643284036
 H         2.0928391399       -0.5111333634      -11.4986852677
 H         0.4976883133        0.1432952625      -11.3593758270
 H         2.9770323949        0.9797616577      -10.2562256067
 H         2.7417101422        1.0989271720       -8.3481872981
 H         1.5981317772        1.5990577027       -9.5010596893
 H        -4.5335634216        2.6471901259       -4.9963295223
 H        -3.6893467467        3.6503973951       -6.2230975611
 H        -2.7633765385        2.5317515624       -5.1522984709
 H        -4.6885880185       -0.1754499068       -5.6720113523
 H        -3.2206165250        0.0058252284       -5.3432323151
 H        -3.4957101612       -0.7563595149       -6.7634485935
 H       -12.1417011048        2.7911554561       -5.2541290685
 H       -10.7339145873        2.2435271738       -4.4585592387
 H       -11.4296560627        1.1310290363       -5.5853683134
 H       -10.2293096984        1.5414307337       -8.5333732996
 H       -11.3120781696        2.8709813254       -8.3966936019
 H       -11.7681145845        1.3624833199       -7.5935047356
 H        -5.1342543014        6.3556528369       -4.7617891455
 H        -4.1893280285        7.4086713717       -5.7123700962
 H        -4.1183188904        5.7951738387       -6.1645000470
 H        -7.2198921597        8.1604777287       -7.7249122239
 H        -5.8076361507        8.9251113104       -6.8563835052
 H        -6.9851562160        8.3148277822       -5.8795748128
 H        -0.5337393490        8.3824372752      -12.0493550582
 H        -0.9138871933        7.6641825866      -13.7040082600
 H        -0.4006582876        6.6435447545      -12.3650954618
 H        -4.5072159930        7.8629294269      -12.8048842287
 H        -3.3138462941        7.5760678513      -14.0345712340
 H        -3.2563621480        9.1629513844      -13.1535633168
 H        -5.6307007438        2.2615738689      -14.5829880655
 H        -6.5322182662        3.7228688983      -14.8318038114
 H        -7.3728311811        2.3188722077      -14.1098417566
 H        -7.6932693553        4.9015303293      -12.4550515911
 H        -6.7867438063        4.3620695543      -11.1334969158
 H        -7.9357363456        3.2812396840      -11.9892484541
 Na       -3.7724346471        3.8868177778       -9.7389734562
 Na        1.3488422659       -7.4331927389       -9.8065521694
