232

 C        -6.2595262877        0.7918119673      -12.0455568068
 C        -5.3803249863        2.0698531258      -11.9597440001
 O        -4.4642882303        2.1693402744      -11.1922387877
 C        -5.9951331762        3.3224716959      -12.7375965451
 C        -4.8186570367        4.3480079730      -12.9343130630
 O        -4.9060633968        5.5595225278      -12.6524978368
 C        -3.5300651338        3.9021968451      -13.6296596271
 C        -2.5103959239        4.9948719462      -13.6392962262
 C        -2.5534357369        5.8005092761      -12.2923943716
 O        -2.3295731159        5.1187027333      -11.2219004856
 C        -2.4109903996        7.2969809270      -12.3145611564
 C        -2.6545337145        7.7658320972      -10.7432056005
 O        -1.8523294672        8.2434616142      -10.0115217251
 C        -3.9737782019        7.3878536713      -10.1079020638
 C        -3.9098814226        7.1981602679       -8.5866259319
 C        -5.2157828508        6.3412914709       -8.2012326753
 O        -5.5111696089        5.4033188162       -8.9092022220
 C        -5.9785147748        6.5985304305       -6.9006965223
 C        -7.1442850397        5.5643886702       -6.5573141708
 O        -6.8934429400        4.4172014683       -6.5028436037
 C        -8.4935949181        6.1018244342       -5.9077349919
 C        -9.3892136526        4.9568840246       -5.5028659790
 C        -9.7715405445        4.0901290978       -6.8241215319
 O        -9.7178306841        4.5955281454       -7.9061743092
 C       -10.1986358336        2.4775480913       -6.5745532909
 C        -8.8673707930        1.7096956638       -6.3389705284
 O        -8.7595826857        0.9858193419       -5.3227517769
 C        -7.7127613720        1.8524711510       -7.3682675899
 C        -6.4281102455        1.6601137833       -6.6490255519
 C        -5.1529742250        2.0235172919       -7.4168034362
 O        -5.2548874890        2.7072823296       -8.3971511719
 C        -3.8658755514        1.6157692774       -6.6639479448
 C        -2.4864870880        1.6580412993       -7.5759914597
 O        -2.4660637023        2.3465690430       -8.5816677370
 C        -1.2728404481        0.9791778072       -7.0486804783
 C        -0.0342827386        1.0653003920       -7.9942914101
 C         0.2093562591       -0.3313752568       -8.6443661009
 O        -0.5601484909       -1.2590063592       -8.5609484378
 C         1.6009490688       -0.4521364478       -9.5946360447
 C         2.4002270685       -1.6554901176       -8.9039699132
 O         2.9257328493       -1.4478295975       -7.8489144395
 C         2.4387254212       -3.0320700166       -9.7566185000
 C         3.7425317416       -3.7240756847       -9.4905282383
 C         3.7571051075       -5.2318714169       -9.8388815018
 O         2.9188810365       -5.6822293398      -10.5591142750
 C         4.9363916038       -6.0792626865       -9.3180553345
 C         4.6260021992       -7.5894569639       -9.2765927722
 O         3.4291818507       -7.9943931943       -9.1997362928
 C         5.6913235116       -8.6457626583       -9.0655166747
 C         5.1694232054      -10.1160726969       -8.4943190382
 C         4.5307092452       -9.9403474391       -7.1954607122
 O         4.6801105339       -8.9029139909       -6.5783006179
 C         3.4688087199      -10.9450666409       -6.8235595256
 C         1.9332065475      -10.2878582764       -6.8089451085
 O         1.1652134202      -10.5677497284       -7.6998976360
 C         1.6353504351       -9.2722103225       -5.6658578974
 C         0.1067806511       -9.0438524297       -5.7480310285
 C        -0.1754529941       -8.6862860146       -7.2318883626
 O         0.4696630495       -7.7957563023       -7.6512900440
 C        -1.4223104785       -9.2279213565       -8.0793186178
 C        -0.9433655220       -9.3028788459       -9.5673994483
 O         0.1509655628       -9.7117154623       -9.8789054330
 C        -1.9195891297       -8.6509657821      -10.7067611730
 C        -1.0885142700       -8.6526221452      -12.0309689300
 C        -0.6137149693       -7.2334450518      -12.2469507757
 O         0.2986763529       -6.7850481732      -11.5526449174
 C        -1.1713436651       -6.3418608818      -13.3464592805
 C        -2.6391629438       -6.2209214372      -13.0269923626
 O        -3.2584726600       -6.9210632315      -12.3194710169
 C        -3.2876220433       -4.9482896351      -13.7460874688
 C        -4.7957495204       -4.9609156294      -13.4925285495
 C        -5.6890663261       -5.4034930448      -14.6701379903
 O        -5.1875320306       -5.7830879718      -15.6976195923
 C        -7.2592275725       -5.2261722303      -14.6089442361
 C        -7.5917217271       -3.7286437585      -14.2742352090
 O        -7.5372180799       -3.3967269729      -13.0919002566
 C        -7.9991921141       -2.8727812488      -15.4345291385
 C        -8.4732665919       -1.4765110230      -14.8886486122
 C        -9.8444782671       -1.0968819550      -15.5209670806
 O       -10.2735703446       -1.8493333566      -16.3286951162
 C       -10.4772851306        0.3054958440      -15.3340595366
 C       -10.4925814816        0.5442526575      -13.7979032402
 O        -9.7303899417        1.3382136161      -13.2529587192
 C       -11.4646924591       -0.1616815106      -12.8006250845
 C        -9.5498160759        1.3906047767      -15.9553495318
 C       -11.9729277141        0.2845626704      -15.9065799281
 C        -7.6813800062       -5.7169580967      -16.0301521720
 C        -7.8705848630       -6.1456966005      -13.5515394931
 C        -0.4952829605       -4.8963118058      -13.3600964033
 C        -0.9980632036       -6.8944303952      -14.8408102177
 C        -1.9793611433      -10.5785712208       -7.5409243100
 C        -2.3785861143       -8.0650459164       -7.9157345430
 C         3.4349997655      -12.1070209186       -7.8632335738
 C         3.6162460449      -11.5735511805       -5.2888546687
 C         6.1578379725       -5.8517240728      -10.3179513049
 C         5.1924650427       -5.7287859314       -7.7703675221
 C         1.1110339723       -0.7648810921      -11.0445658874
 C         2.3977741881        0.8808149364       -9.4573060000
 C        -3.6317868253        2.7213215073       -5.6127289718
 C        -3.9444957131        0.2058880760       -6.1819696829
 C       -11.2199851705        2.2274203313       -5.4182415122
 C       -10.9096685053        1.9435663161       -7.9383768018
 C        -4.7741988615        6.3821764056       -5.8806238734
 C        -6.6175803560        7.9816821823       -6.8460062079
 C        -0.9243203591        7.6123509431      -12.6831191182
 C        -3.4969978907        8.1430479204      -13.1100990169
 C        -6.3950875434        2.7598005375      -14.2100186456
 C        -7.2687176153        4.0481217688      -12.1153800582
 H        -7.2645723460        1.1278472317      -11.7221597069
 H        -5.8577906436       -0.0401245438      -11.4168693850
 H        -6.4418928934        0.3540879250      -13.0364352575
 H        -3.6628021248        3.5467727462      -14.6182519219
 H        -3.1062085995        3.0735974819      -13.0015191928
 H        -2.8277205437        5.6158246449      -14.4893594236
 H        -1.5121560916        4.5204472280      -13.7953337692
 H        -4.5324419223        6.5856781220      -10.6867320387
 H        -4.4565477016        8.4240084937      -10.3393032064
 H        -3.9519280172        8.0569344416       -7.8883286171
 H        -2.9260546388        6.7888834957       -8.3883332445
 H        -9.0027901196        6.6699771800       -6.6262971947
 H        -8.2526194844        6.8432872652       -5.0823161818
 H       -10.3351010672        5.3280483379       -5.1023473670
 H        -8.9504210446        4.2916835242       -4.7398797845
 H        -7.8639316260        2.7821866151       -7.9056012857
 H        -7.7675100715        1.0584818664       -8.0875664972
 H        -6.5003143310        0.5786561225       -6.4041524381
 H        -6.3466383591        2.1869232183       -5.6812425929
 H        -1.5066721009        0.0368665495       -6.7057729390
 H        -0.9809922099        1.4758305726       -6.1740718751
 H         0.9322773328        1.2855374405       -7.4412965241
 H        -0.0804312370        1.7627390286       -8.9248809122
 H         2.1983205822       -2.7005243681      -10.7862715934
 H         1.7035408610       -3.7044810373       -9.5851833772
 H         3.8559013917       -3.4971329631       -8.4285058715
 H         4.5517131776       -3.0454252903       -9.7504757728
 H         6.4330434964       -8.2903232389       -8.3327866689
 H         6.3534232980       -8.8099807247       -9.9076974902
 H         6.0796195483      -10.7541366637       -8.4294519948
 H         4.5371088504      -10.5507976658       -9.2561920415
 H         2.1942557047       -8.2734429613       -5.9192204481
 H         2.0373747859       -9.7538735918       -4.6845663410
 H        -0.2581873086       -8.4270127995       -5.0429222335
 H        -0.3749175947       -9.9667914041       -5.4285458073
 H        -2.2761742271       -7.6115887993      -10.4608268967
 H        -2.8114293943       -9.2569781712      -10.7647051576
 H        -1.8340678633       -8.9550662108      -12.8821182624
 H        -0.3342458027       -9.4328871718      -11.7022584915
 H        -2.9510174382       -4.9762519341      -14.6994602224
 H        -2.8208091455       -4.1070206641      -13.2645375206
 H        -5.1161698229       -4.0154095527      -13.1040397845
 H        -4.9347455607       -5.7086186968      -12.7011287743
 H        -8.8242995191       -3.3555967130      -15.9749473231
 H        -7.1691567056       -2.7436473282      -16.1842120502
 H        -7.7976345686       -0.7157724421      -15.0387079504
 H        -8.6630746283       -1.4824101439      -13.7303018834
 H       -12.3402535446       -0.6833365275      -13.2616358877
 H       -11.7917189721        0.5622919095      -12.0674908442
 H       -10.9622157788       -0.7972219902      -12.0603528021
 H        -8.7644244749        1.5292588376      -15.2240884217
 H       -10.0061775636        2.2961982220      -16.1985886172
 H        -9.0047813985        1.0280783836      -16.8173094588
 H       -12.5569347952       -0.4921616914      -15.2769492828
 H       -12.0037794320       -0.2030858201      -16.8775609113
 H       -12.3699428623        1.2450805690      -15.7020544486
 H        -8.7500258088       -5.6119235810      -16.1422769287
 H        -7.2617616736       -6.6794181777      -16.2083371830
 H        -7.3247616613       -5.1201391321      -16.8281422379
 H        -7.6740471190       -5.8590111701      -12.5063901045
 H        -7.5424301150       -7.2346796089      -13.6213586578
 H        -8.9367947122       -6.1285842723      -13.6723651974
 H        -0.9822133650       -4.2776188397      -14.1172987534
 H         0.5223956919       -5.0226120767      -13.6533856802
 H        -0.6034040317       -4.4520432861      -12.4097089299
 H        -1.8814562224       -7.0897221667      -15.4332580495
 H        -0.4654230229       -7.8285674684      -14.8363664848
 H        -0.4463073202       -6.1646487677      -15.5130817061
 H        -2.5572299197      -11.1492340365       -8.2545269369
 H        -2.5942922738      -10.4274497034       -6.6096279049
 H        -1.0638422093      -11.1387625181       -7.2537261746
 H        -3.3139654516       -8.1279506640       -8.4225635617
 H        -2.0128886261       -7.1157241307       -8.1893351399
 H        -2.6228675885       -7.9793072778       -6.8917013329
 H         3.4311771870      -11.9210568062       -8.9635476573
 H         2.5903034924      -12.8339759255       -7.6553247437
 H         4.3641937366      -12.7454918283       -7.6450918769
 H         4.1456467376      -12.5036060591       -5.4334669383
 H         2.6605788052      -11.7141244533       -4.8930051302
 H         4.2080047771      -10.9277573870       -4.6658523495
 H         6.9344627895       -6.6016839557      -10.1149052263
 H         6.6559260773       -4.9132320676      -10.1224503998
 H         5.8215171910       -5.9720026463      -11.2971554666
 H         4.1950439604       -5.4440450257       -7.3017967200
 H         6.0009775639       -4.9216101544       -7.7330416005
 H         5.5007485536       -6.5597222336       -7.1854844246
 H         0.5523696013       -1.6435846390      -11.1402141592
 H         1.9538737895       -0.6398835009      -11.7846226343
 H         0.4983065892        0.0854320533      -11.2906426497
 H         3.2595947224        0.8735006091      -10.1153216596
 H         2.6939461980        0.9528749081       -8.3904132807
 H         1.8092859782        1.8626292416       -9.6556890838
 H        -4.5436845800        2.7897671025       -4.9941060725
 H        -3.3765070437        3.7031833402       -6.0147937785
 H        -2.8132528299        2.3277534604       -4.9472321588
 H        -4.8297444023        0.0082959685       -5.6182162768
 H        -3.3183464805       -0.2293612309       -5.4144748977
 H        -3.8745811314       -0.5282328760       -6.9152748625
 H       -12.0046050225        2.9712979921       -5.3641594445
 H       -10.7599162948        2.4312738964       -4.4302219998
 H       -11.5589978803        1.1562015825       -5.4703196282
 H       -10.1460666643        1.4370762467       -8.5267364888
 H       -11.1277292937        2.8357172978       -8.5348943212
 H       -11.7582930156        1.3727259531       -7.6926737031
 H        -5.1148672409        6.2251801497       -4.8643224165
 H        -4.1245912510        7.2602764232       -5.8345054417
 H        -4.1369097296        5.5518567982       -6.2479784646
 H        -7.4896904519        8.0265212582       -7.4187367559
 H        -5.8710607521        8.7433899934       -7.2329107567
 H        -6.7056371332        8.2767951321       -5.8366568469
 H        -0.6693925754        8.4249484879      -12.0985632550
 H        -0.6885307965        7.7103171829      -13.7321496540
 H        -0.3106492537        6.7894152615      -12.3320437201
 H        -4.4237673538        7.8275280483      -12.6958108296
 H        -3.5617041709        7.7637438311      -14.1481690491
 H        -3.4222699171        9.1816203387      -12.9791420876
 H        -5.6193682986        2.2668989393      -14.7412003775
 H        -6.8004326610        3.5625725997      -14.8244931584
 H        -7.2128182289        2.1141840699      -13.9973440167
 H        -7.7575855802        4.8872932851      -12.7306693256
 H        -6.9214438664        4.6094458316      -11.2778727769
 H        -8.1979625062        3.3691674986      -11.9687571322
 Na       -3.6843668157        3.9438209621       -9.8830758128
 Na        1.4254921740       -7.5395013643       -9.7662443471
