232

 C        -6.3164101554        0.4343406589      -12.2760601843
 C        -5.5788008638        1.7177120505      -12.0781699474
 O        -4.7103927934        1.8072771710      -11.2173034102
 C        -6.1382477906        3.0274267756      -12.7968105593
 C        -5.1529025763        4.1956035336      -12.6780612823
 O        -5.4164805558        5.2248557094      -12.0814889229
 C        -3.8042145724        4.0436374883      -13.3046101187
 C        -2.9536380944        5.3038074892      -13.3774085113
 C        -2.8564557421        6.1182718848      -12.0877693899
 O        -3.0105833382        5.5667775338      -10.9421984628
 C        -2.5138129318        7.5646978067      -12.1018513126
 C        -2.7358347133        8.3467091050      -10.7284098287
 O        -1.9177800638        9.1147485830      -10.3811343142
 C        -4.0625491656        8.1682033557      -10.0309491166
 C        -3.8587172176        7.3829120462       -8.7426833242
 C        -4.9891420458        6.4979111697       -8.2462892178
 O        -5.0677715043        5.3757973880       -8.6519076054
 C        -5.8715592010        7.0073638236       -7.0746427957
 C        -6.8500341434        5.9445458886       -6.4099157994
 O        -6.3953770405        4.8760992832       -6.0818507757
 C        -8.3402723308        6.2473860605       -6.2076589150
 C        -9.1716819798        5.0604778432       -5.7585075423
 C        -9.3722352757        4.2148871339       -7.0866478190
 O        -9.4498632850        4.7972775465       -8.1588459588
 C        -9.6499864820        2.7041618180       -6.9262180807
 C        -8.3861982285        2.0682439318       -6.3588228751
 O        -8.0956884778        2.1506175433       -5.2012460664
 C        -7.3847765735        1.5102251197       -7.3910473124
 C        -6.0871486688        1.2193515235       -6.7115791019
 C        -4.8776139700        1.8030989279       -7.5385960405
 O        -5.1051543226        2.2235686310       -8.6491528224
 C        -3.4820374378        1.8031595140       -6.6973190186
 C        -2.3584270116        1.6615060680       -7.8573444882
 O        -2.1889313781        2.5583486990       -8.6279682089
 C        -1.5712117336        0.3713827435       -7.9544752973
 C        -0.4553209058        0.5761647171       -9.0323559073
 C         0.3436936075       -0.6765508920       -9.3399556949
 O        -0.0646851994       -1.7343469710       -8.9524419456
 C         1.7512877400       -0.4912678756      -10.1875686203
 C         2.7898053959       -1.5389906960       -9.7088814383
 O         3.8687366055       -1.1935863943       -9.2429115165
 C         2.6315506308       -3.1090937321      -10.0937378151
 C         3.8260456361       -3.9260787297       -9.6001606749
 C         3.6667691618       -5.5014784206       -9.5842784899
 O         2.4474045529       -5.8130240258       -9.8401402313
 C         4.7852011623       -6.5255108961       -9.2478127945
 C         4.5349928657       -8.0915993733       -9.5255540778
 O         3.5637061185       -8.5437427195      -10.0196013362
 C         5.7376273775       -8.9559066327       -9.0610822609
 C         5.1860433652      -10.2763884668       -8.3298675682
 C         4.7127645989      -10.0841650387       -6.9049827436
 O         4.7332627695       -8.9938454286       -6.3368344202
 C         3.9493941447      -11.2299512050       -6.1951387898
 C         2.4351766070      -10.7087500395       -6.4320259879
 O         1.8896460501      -10.9520755435       -7.4750890473
 C         1.7874593323       -9.7983990034       -5.3292562069
 C         0.2681930560       -9.6056174852       -5.5322578104
 C        -0.0004681135       -8.9481451447       -6.8972286982
 O         0.7762411974       -8.1147871631       -7.2444499232
 C        -1.1749196258       -9.4739442371       -7.6993387583
 C        -0.8034326245       -9.5099772802       -9.2459982685
 O         0.4116150489       -9.5990562086       -9.5750420052
 C        -1.9337493798       -9.3283862964      -10.2929304674
 C        -1.5597127123       -8.5594264376      -11.5397546996
 C        -1.2331436130       -7.0813226662      -11.4058701756
 O        -0.6839201880       -6.6042344877      -10.4425617525
 C        -1.6890884310       -6.1218339742      -12.4964549180
 C        -3.2426957350       -6.0452266706      -12.5795359521
 O        -3.9236878337       -6.6804873029      -11.7959755657
 C        -3.8976377007       -5.1567157387      -13.7011000419
 C        -5.3601032619       -5.2173157747      -13.7125213378
 C        -6.0318886593       -4.8867141953      -15.1101646319
 O        -5.4102442153       -4.3074172452      -15.9729046052
 C        -7.5153868678       -5.2142657128      -15.3750689840
 C        -8.1624005600       -3.9252590322      -14.7750409516
 O        -8.2461926957       -3.8613484707      -13.5699701763
 C        -8.4310360533       -2.8073233061      -15.7486211266
 C        -8.8528189238       -1.4389511137      -15.1774557513
 C       -10.2615804482       -0.8912248265      -15.7851836232
 O       -10.9156747922       -1.5486614899      -16.5294614421
 C       -10.8181793825        0.4661157117      -15.1975224395
 C       -10.2411825078        0.5269321003      -13.7158684962
 O        -9.0988261157        0.8519306493      -13.5069753555
 C       -11.0354534903       -0.0481276012      -12.5246935791
 C       -10.1881874759        1.5451677366      -16.1444156401
 C       -12.3767108258        0.5539109930      -15.1524982425
 C        -7.7515088211       -5.3391553247      -16.9180154445
 C        -8.0829029231       -6.5160777071      -14.7547873216
 C        -1.1783912699       -4.6568065093      -12.0159095100
 C        -1.0431182383       -6.6730676230      -13.8143369422
 C        -1.4511175927      -10.9266285765       -7.4054029415
 C        -2.5406125644       -8.7431797063       -7.4645230698
 C         4.0635163034      -12.6790354200       -6.8939048897
 C         4.3122134552      -11.2512769444       -4.6391099402
 C         6.1744089213       -6.0405516573       -9.7655056083
 C         4.9789461373       -6.3507824866       -7.6306979674
 C         1.1551960751       -0.8673729429      -11.6160964138
 C         2.2100925404        0.9465107196      -10.2820347456
 C        -3.3104798202        3.1859923898       -6.0700908353
 C        -3.4490381809        0.7005380928       -5.7132324052
 C       -10.7937352928        2.6255914201       -5.8347305786
 C       -10.0153560895        2.1123356910       -8.3466513615
 C        -4.9173742336        7.4249830310       -5.8911926580
 C        -6.6195777884        8.3142276265       -7.4293019020
 C        -0.9765196906        7.6067103837      -12.4654289716
 C        -3.2007335709        8.3743452071      -13.1881201927
 C        -6.3418900258        2.6343652926      -14.3502674327
 C        -7.4907211403        3.4902588916      -12.1210376507
 H        -7.3228910324        0.6109492005      -11.9060777730
 H        -5.9196353977       -0.3301350735      -11.6256636270
 H        -6.3517074295        0.1756368870      -13.3410065070
 H        -3.7667135088        3.7197658464      -14.3312847356
 H        -3.2195665248        3.3741350159      -12.7556674435
 H        -3.3016184731        5.9049525140      -14.2333991249
 H        -1.9958067015        4.9715436519      -13.7716086681
 H        -4.8677012548        7.5521725022      -10.5692619774
 H        -4.5564277607        9.2147477021       -9.9090452356
 H        -3.4042273402        8.0497680890       -8.0306082815
 H        -3.1207990208        6.5765900917       -8.9336741808
 H        -8.6756922286        6.6598376495       -7.2196618319
 H        -8.3638955428        7.1172141558       -5.5713102384
 H       -10.1937440773        5.4532495873       -5.6028928865
 H        -8.6458295304        4.5571910707       -4.9861411896
 H        -7.3893280799        2.3140837015       -8.1505903401
 H        -7.8084801243        0.6352042588       -7.8326664184
 H        -6.0012613655        0.1607530964       -6.4876541364
 H        -6.2472473618        1.6896658633       -5.6766567926
 H        -2.1971904331       -0.4430628657       -8.2865771410
 H        -1.2691282679        0.1753009415       -6.9123349925
 H         0.2738887489        1.3937291542       -8.6891342090
 H        -0.9405953481        1.0579850679       -9.9779848810
 H         2.6821253785       -3.2010150376      -11.1061946219
 H         1.6797470829       -3.3980144650       -9.6443019381
 H         4.0761134162       -3.6530487050       -8.5755357708
 H         4.7723146537       -3.7102045747      -10.1223713021
 H         6.4330773677       -8.4118752697       -8.4525789872
 H         6.2850081690       -9.2160640064       -9.9872048745
 H         6.0275507217      -10.9795914463       -8.4185865665
 H         4.4641932555      -10.8047151875       -8.9783626472
 H         2.4286894183       -8.8140229314       -5.4221901263
 H         2.1309336647      -10.2414551263       -4.3223418780
 H        -0.1252673129       -8.9344973361       -4.7986373113
 H        -0.0928522346      -10.5865350072       -5.4595254808
 H        -2.8519957944       -8.9250460850       -9.9485225598
 H        -2.0624995832      -10.3693062785      -10.6576355237
 H        -2.2748336433       -8.7571259517      -12.3518412221
 H        -0.6131440442       -9.1398158154      -12.0611240092
 H        -3.4927234742       -5.5718986972      -14.6275035782
 H        -3.5530956765       -4.1316233061      -13.6188193407
 H        -5.8055332855       -4.4901135263      -13.0561301228
 H        -5.7224404978       -6.2371451576      -13.4459335066
 H        -9.2140620124       -3.1660291983      -16.4980935381
 H        -7.4717011516       -2.7285454573      -16.4089554759
 H        -8.0117543077       -0.6719696292      -15.4358800814
 H        -9.0569340484       -1.5103493708      -14.1154540883
 H       -11.2462477536       -1.1285554960      -12.6108909097
 H       -12.0566837590        0.3604773444      -12.3771117691
 H       -10.4363592191       -0.0202421632      -11.6049421582
 H        -9.1602646312        1.6076072852      -15.8013575902
 H       -10.6466801307        2.5626984330      -16.1160748867
 H       -10.2466243032        1.0977491022      -17.1418209625
 H       -12.6224912691       -0.1179562852      -14.4114366131
 H       -12.7560382074        0.3179127035      -16.1219125573
 H       -12.6708910089        1.6021815852      -14.9052939770
 H        -8.8649451693       -5.2810085498      -17.1220162256
 H        -7.5553500396       -6.3435694286      -17.2172013504
 H        -7.1489232863       -4.6206246556      -17.4542640971
 H        -8.4512121371       -6.1968952403      -13.7857548179
 H        -7.3349765392       -7.2495002744      -14.5771277732
 H        -8.9032725254       -7.0326385410      -15.3004070039
 H        -1.3284608357       -3.9485270822      -12.8333984387
 H        -0.1014654766       -4.6470049354      -11.7333053837
 H        -1.7204803567       -4.2852296273      -11.1028331407
 H         0.0565901558       -6.5585315433      -13.6853771971
 H        -1.4945187941       -6.1555124818      -14.6734546743
 H        -1.2706436831       -7.6730851054      -14.0249883086
 H        -2.4375554599      -11.2255386883       -7.8563230249
 H        -1.5448390823      -11.2051478704       -6.3485923691
 H        -0.6975652034      -11.5949629660       -7.8129079760
 H        -3.4195363199       -9.1286426170       -8.0131462915
 H        -2.5178072535       -7.6409519084       -7.6928180839
 H        -2.8768367203       -8.8178490959       -6.3900937098
 H         3.3972339495      -12.7387327198       -7.7166063168
 H         3.6070653730      -13.3423545375       -6.2116216434
 H         5.0410408861      -13.0232916580       -7.1293961178
 H         5.3530561304      -11.5731102526       -4.4931107098
 H         3.6355155410      -12.0732850428       -4.2735867169
 H         4.1687120744      -10.2488749048       -4.1546606069
 H         6.8351959372       -6.8901942276       -9.8224712202
 H         6.6019572894       -5.2878915282       -9.0913806202
 H         6.0227964085       -5.4995340265      -10.7390051876
 H         4.1588743049       -6.7407555183       -7.0553452521
 H         5.0650190807       -5.2614369093       -7.4273742468
 H         6.0307593993       -6.8041278003       -7.5135880902
 H         0.6465970352       -1.8967937189      -11.5636718285
 H         1.9401253785       -0.8072763445      -12.3661511910
 H         0.3114829923       -0.1429487474      -11.7822668530
 H         3.3580123864        0.8277561191      -10.3756833370
 H         2.0094945550        1.5609575359       -9.3652057341
 H         1.9256764004        1.4109563973      -11.1631831143
 H        -4.2597562071        3.3961526019       -5.5915419035
 H        -3.1905122003        3.9611102278       -6.8338231438
 H        -2.5856514681        3.1819481624       -5.3056462791
 H        -4.3407212791        0.7139889312       -5.0849155503
 H        -2.6628234182        0.6587320889       -5.0132637908
 H        -3.6411408139       -0.3181091110       -6.1378514957
 H       -11.7230377882        2.9932618446       -6.2599956435
 H       -10.4178618539        3.1626793423       -4.9775676858
 H       -10.9800740577        1.6679170471       -5.4186305673
 H        -9.0777829992        2.0056708942       -8.8051512377
 H       -10.5809287767        2.8731213281       -8.8524778343
 H       -10.5297665449        1.1340933518       -8.3527177656
 H        -5.4201410487        8.0865214592       -5.1704445290
 H        -4.0592797009        7.9326777272       -6.2978273494
 H        -4.5757167112        6.6152581462       -5.2884972721
 H        -7.2851721367        8.2111911446       -8.3051128271
 H        -5.7838727373        8.9669679365       -7.7316477357
 H        -7.0853969593        8.7572831724       -6.5107535825
 H        -0.3765956113        8.1863013163      -11.6732022345
 H        -0.7146943174        8.0309302199      -13.4402905805
 H        -0.6166191199        6.5463588772      -12.3907576137
 H        -4.2872474293        8.1311131503      -13.2787243318
 H        -2.7788990127        8.1207650409      -14.1171601076
 H        -3.1218703078        9.4879191208      -13.2175595319
 H        -5.5695375895        1.9088936002      -14.7127933114
 H        -6.2858142722        3.5487079216      -14.9205683626
 H        -7.2752023952        2.0580690957      -14.3504421304
 H        -7.7540897058        4.4627969497      -12.6363437350
 H        -7.4275624054        3.6355010150      -11.0573208168
 H        -8.2128600393        2.6830799935      -12.2849149818
 Na       -3.8564463319        3.8549911306       -9.9471048515
 Na        1.2391922488       -7.5354293873       -9.4631053525
