232

 C        -6.3446090847        0.2910184935      -12.3011254322
 C        -5.7018202393        1.6788342278      -12.0701776372
 O        -4.6927273225        1.7732328436      -11.4237226166
 C        -6.2361015073        2.9884480236      -12.8292491920
 C        -5.1838784301        4.2412787903      -12.7168603787
 O        -5.5257264444        5.2607660027      -12.0545828134
 C        -3.7556404565        4.0162605349      -13.2571801724
 C        -2.9205445014        5.3628492604      -13.2868729407
 C        -2.9188633061        6.1571200789      -11.9449484840
 O        -2.9186028197        5.5724097471      -10.9175632069
 C        -2.4372134939        7.6126105598      -12.1574308666
 C        -2.6715237048        8.4914005693      -10.8321515429
 O        -1.8373639189        9.2671469035      -10.3645954295
 C        -3.9848056019        8.2168595968      -10.0140495344
 C        -3.7451391603        7.4357899334       -8.6920505395
 C        -4.8365177898        6.5024409244       -8.1798621592
 O        -5.0370562209        5.3457378880       -8.5065748650
 C        -5.8344432140        7.1052206859       -7.0625355364
 C        -6.8147472488        5.9345360799       -6.3816923843
 O        -6.3425901698        4.9310287029       -5.9331984442
 C        -8.2572935307        6.3562808731       -6.2160176083
 C        -9.1076104752        5.1560759496       -5.8843549225
 C        -9.4198938261        4.2405493906       -7.1052814783
 O        -9.3234092647        4.6925795637       -8.2116076141
 C        -9.6617201833        2.7338978580       -6.9255232635
 C        -8.4095698059        2.1411658300       -6.4469136030
 O        -8.0260402447        2.3189955564       -5.2685346060
 C        -7.3501015441        1.4521324333       -7.3907760211
 C        -6.0592420934        1.2355850476       -6.6295763811
 C        -4.8368724303        1.6957990223       -7.4640548690
 O        -5.0274056973        2.1475537727       -8.6020943461
 C        -3.4812008810        1.7353138753       -6.8084580287
 C        -2.3626228094        1.5869487957       -8.0322512286
 O        -2.2105317307        2.5451756337       -8.7714665248
 C        -1.5535659465        0.3269519007       -8.1225061713
 C        -0.4335525303        0.5197678860       -9.1334123645
 C         0.4192857168       -0.7448223716       -9.2921784223
 O         0.0580093067       -1.8627341248       -8.9872136420
 C         1.6468439811       -0.5304799830      -10.2799574928
 C         2.8518582323       -1.4987226336       -9.8138213800
 O         3.8172924916       -0.9465794913       -9.3462827611
 C         2.6637057191       -2.9723593352      -10.0121530364
 C         3.9248678742       -3.8528932759       -9.5649280458
 C         3.5807727371       -5.3811559686       -9.6000162312
 O         2.4447044472       -5.7600299253       -9.7819862998
 C         4.8115695638       -6.4539982380       -9.0897664086
 C         4.5596848599       -8.0786086667       -9.3840552037
 O         3.5791551359       -8.5153877109       -9.9507557021
 C         5.7572975786       -9.1004352558       -9.0706720114
 C         5.0689130409      -10.3366349215       -8.3312040696
 C         4.7446431800      -10.0357454070       -6.9070442152
 O         4.8481206911       -8.9262372535       -6.4399665289
 C         3.9611765189      -11.2198351433       -6.1329668627
 C         2.5444913657      -10.8114203668       -6.2485592098
 O         1.8387893136      -11.1201620571       -7.1792756854
 C         1.8784847664       -9.9011368891       -5.1798837195
 C         0.3884652985       -9.5581983249       -5.4311920058
 C         0.1100518868       -9.0893393837       -6.8676764345
 O         0.7535780943       -8.1915437004       -7.3987377641
 C        -1.2453658483       -9.6070391487       -7.7422902941
 C        -0.8795164171       -9.4729927490       -9.2192734907
 O         0.2753158222       -9.6238997709       -9.6010177680
 C        -1.9611321800       -9.3256434486      -10.2984737122
 C        -1.5135230750       -8.6026721260      -11.5471508461
 C        -1.2736091203       -7.0521684314      -11.2181556439
 O        -0.6517928988       -6.6813582915      -10.2760308400
 C        -1.7212411829       -6.0635384695      -12.4095211469
 C        -3.3702176756       -6.0128408495      -12.5538870021
 O        -4.0389427145       -6.6331053395      -11.8070230497
 C        -3.9889194275       -5.1944121769      -13.7075785084
 C        -5.5284592170       -5.3796655988      -13.8072181345
 C        -6.0110984976       -4.8646381458      -15.1823545069
 O        -5.3563035238       -4.1324909414      -15.9022480889
 C        -7.5120438141       -5.2578357200      -15.4898646680
 C        -8.1778757409       -3.9655673435      -14.8652081680
 O        -8.3518856766       -3.8709439041      -13.6672249227
 C        -8.6085300214       -2.8578954173      -15.8952560951
 C        -8.9149213039       -1.4923494834      -15.3092620962
 C       -10.2690077143       -0.9558625024      -15.6979765050
 O       -11.0397264576       -1.5161591748      -16.4362704036
 C       -10.7570997681        0.4647907543      -15.1365784467
 C       -10.2438179675        0.5276912118      -13.7059634685
 O        -9.0591103404        0.8539253414      -13.5327495884
 C       -11.0197761322        0.0750675362      -12.4977749979
 C       -10.2917632789        1.7021286331      -16.0358919773
 C       -12.3378723202        0.5703951490      -15.2508775559
 C        -7.7962625040       -5.3466419922      -17.0354840647
 C        -8.1030014644       -6.5247987156      -14.8057279826
 C        -1.2205496024       -4.6907981115      -11.9632550004
 C        -1.0054764028       -6.5910750169      -13.6610694689
 C        -1.6076589449      -11.1403330266       -7.4495582454
 C        -2.5595017391       -8.8735794074       -7.3777079702
 C         4.2002304758      -12.5347375976       -6.8295119449
 C         4.4784187185      -11.3145261466       -4.7215529394
 C         6.2025689312       -6.1312311184       -9.7513969326
 C         4.8567638897       -6.2603595327       -7.5834095755
 C         1.1631500656       -0.8337820509      -11.7479416046
 C         2.1321364757        0.9606939947      -10.2921727159
 C        -3.2259134094        3.2133636286       -6.2812774396
 C        -3.1868758699        0.7752880178       -5.6493883010
 C       -10.8471177013        2.4792790489       -5.9312343644
 C       -10.1483352627        2.1486878593       -8.2874550206
 C        -4.9130051704        7.5695884989       -5.8864379702
 C        -6.7081641621        8.3760976764       -7.5852465095
 C        -0.8774617387        7.6835264428      -12.3925326797
 C        -3.3228134735        8.4419148554      -13.2668353859
 C        -6.3981808136        2.6113109062      -14.2763435205
 C        -7.5421210573        3.3857398945      -12.0769189383
 H        -7.3693935180        0.2074930541      -11.8739328714
 H        -5.7304529120       -0.4228925755      -11.6921810268
 H        -6.3101978280        0.0654969526      -13.3596622720
 H        -3.7289628765        3.6301456127      -14.2957779842
 H        -3.1993175826        3.3545960796      -12.6459127904
 H        -3.1784092443        5.9511832469      -14.1916798368
 H        -1.8772126959        5.1012683229      -13.5405996725
 H        -4.7690778545        7.6168569574      -10.5683977611
 H        -4.5706353030        9.0972641872       -9.6801251076
 H        -3.6128959061        8.2763015470       -8.0229594783
 H        -2.8347039264        6.8263440624       -8.5978027770
 H        -8.5679303478        6.9391735577       -7.0843687277
 H        -8.2128834730        7.0445353327       -5.4103113733
 H       -10.0239856440        5.5420234962       -5.5608909750
 H        -8.4682844662        4.5444196054       -5.1258873043
 H        -7.1968679668        2.1266359313       -8.2034962078
 H        -7.8085397177        0.4989626870       -7.7481636379
 H        -5.8828365360        0.2014257796       -6.2776975089
 H        -6.1947546302        1.8233756209       -5.6771429236
 H        -2.1578412676       -0.4540322927       -8.4629639403
 H        -1.2515602251        0.1427485564       -7.1335884992
 H         0.2284006786        1.4006297210       -8.7794805202
 H        -0.8175585870        0.8849990627      -10.1277048572
 H         2.4664236471       -3.1810669215      -11.1016296348
 H         1.8003460681       -3.1703376091       -9.3466247387
 H         3.9999471639       -3.7212099061       -8.4890565664
 H         4.9052196361       -3.6615046463       -9.9594336916
 H         6.3819384723       -8.6313102736       -8.3152542949
 H         6.3353920796       -9.2577095990       -9.9919055297
 H         5.7056512623      -11.2013152511       -8.4306449326
 H         4.1913382550      -10.6981242960       -8.8901148012
 H         2.5863634285       -9.0262096243       -5.0022774561
 H         2.0341324685      -10.5477623622       -4.2707265974
 H         0.0850317416       -8.7609683253       -4.8155009665
 H        -0.1314656461      -10.5908100358       -5.2632881431
 H        -2.8442473616       -8.7157748733      -10.0060847571
 H        -2.2588845159      -10.3861168148      -10.4465402299
 H        -2.1652337393       -8.7463543490      -12.4300290266
 H        -0.5676936699       -8.9888144742      -11.9856681715
 H        -3.5539858099       -5.6036488942      -14.5977972227
 H        -3.6925069551       -4.2177662470      -13.6335655742
 H        -6.1649928921       -4.6869604005      -13.2094826572
 H        -5.8268076289       -6.3497837089      -13.6627935133
 H        -9.5629916248       -3.2755510249      -16.3681187767
 H        -7.8909048108       -2.8409556604      -16.7120759336
 H        -8.0831723979       -0.7601386995      -15.6282561517
 H        -8.9787284213       -1.5761128651      -14.2289508167
 H       -11.3341911637       -1.0116528632      -12.5382041676
 H       -12.0079667927        0.5734978722      -12.4665474623
 H       -10.4519894438        0.0969094391      -11.5969551392
 H        -9.2629072420        1.9048695889      -15.9306309443
 H       -10.8568686978        2.5670770430      -15.7743517649
 H       -10.6031197688        1.3795278766      -17.0522424879
 H       -12.7288554322       -0.4254606638      -14.8426537648
 H       -12.5886982768        0.7680968230      -16.2882962588
 H       -12.6319787714        1.4299070210      -14.6475052602
 H        -8.9032288928       -5.3281298436      -17.2712953389
 H        -7.4758213549       -6.3061778511      -17.3196720799
 H        -7.1872998570       -4.6500633854      -17.5739319933
 H        -8.3918900435       -6.2234085532      -13.8289948058
 H        -7.3759839968       -7.3739738382      -14.7644825230
 H        -8.9551064609       -6.9886320240      -15.3065323200
 H        -1.4425163373       -3.9311367201      -12.7391541673
 H        -0.1383572107       -4.6253452331      -11.7136874472
 H        -1.7529368865       -4.4181561416      -11.0781973822
 H        -0.0212651737       -6.1553513621      -13.7283271268
 H        -1.6439716765       -6.4853542808      -14.5295049464
 H        -0.9199732852       -7.6889049629      -13.6297837675
 H        -2.3674833607      -11.6231742652       -8.0334689585
 H        -2.0494969257      -11.1844719719       -6.4100877694
 H        -0.7017914149      -11.7724394629       -7.4182700334
 H        -3.4405761785       -9.1493009974       -7.9553468479
 H        -2.5298438255       -7.7602348746       -7.4663194161
 H        -2.8288368390       -9.0687006463       -6.3329925278
 H         3.6848362799      -12.5803657661       -7.7728447094
 H         3.6924099801      -13.3354748698       -6.2655389832
 H         5.2962854908      -12.7330093098       -6.8853534875
 H         5.4007182393      -11.8749641954       -4.6340114276
 H         3.6737275084      -11.8900320281       -4.2323714384
 H         4.6575710855      -10.3013802257       -4.3396177181
 H         6.8312594646       -7.0136793754       -9.6890173947
 H         6.7659182280       -5.3090400085       -9.2733571038
 H         5.9820446571       -5.8516414935      -10.7646057209
 H         3.9001383738       -6.5403100197       -7.1124416254
 H         5.0467148569       -5.1318090725       -7.4177475215
 H         5.7308380815       -6.7550560348       -7.2632202302
 H         0.8637010029       -1.8648926141      -11.8291516173
 H         2.0683277480       -0.5515379885      -12.3773042204
 H         0.3056674072       -0.2521863836      -12.0266173743
 H         3.1515003582        0.7495119549      -10.6799881886
 H         2.2473533278        1.4256873989       -9.3008257914
 H         1.6761792480        1.6378062015      -11.0490864034
 H        -4.1007466614        3.5563617475       -5.7510645370
 H        -3.0806135748        3.8973198643       -7.1079687921
 H        -2.4214411020        3.2180845001       -5.5440592570
 H        -3.9292561006        0.7779987362       -4.8446164993
 H        -2.2798108252        1.0919503833       -5.1392976265
 H        -3.1262465670       -0.3241673525       -5.8272364835
 H       -11.7450753517        2.8640417733       -6.4214016935
 H       -10.6032781995        2.9311907370       -4.9224821749
 H       -11.0006786510        1.4329355795       -5.6723699768
 H        -9.2848099005        1.7848620232       -8.8701942192
 H       -10.6061636958        2.9529065599       -8.7839062015
 H       -10.8514222893        1.3272625449       -8.1520490458
 H        -5.4679895220        8.0312409873       -5.0230216545
 H        -4.1664552022        8.2685579069       -6.1805952509
 H        -4.3890958289        6.7371126464       -5.4627406074
 H        -7.0191467522        8.1998327767       -8.5536428254
 H        -5.9936653420        9.2352515241       -7.6178877073
 H        -7.4561129848        8.6579909607       -6.9127392082
 H        -0.3042037641        8.2348814196      -11.6505419065
 H        -0.6182373750        8.0411124133      -13.3905004503
 H        -0.5451854888        6.5966226715      -12.2961558385
 H        -4.3841436386        8.2465246112      -13.1307919591
 H        -3.1279617649        8.2323831011      -14.3028782432
 H        -3.1946024090        9.5187226753      -13.2366854623
 H        -5.5010920115        2.0786172965      -14.5935995468
 H        -6.4510724662        3.5270258699      -14.8400304106
 H        -7.2160324456        1.8876538759      -14.3176633089
 H        -7.8213899825        4.4882683092      -12.2875727127
 H        -7.4132687709        3.2170824927      -11.0003158054
 H        -8.3428963023        2.5721745622      -12.3084800392
 Na       -3.9582635356        3.7658389722       -9.9634624550
 Na        1.2046407918       -7.6578854972       -9.5402467567
