232

 C        -6.3138667133        0.3648380304      -12.3377455450
 C        -5.6281427315        1.6900092510      -12.1031079119
 O        -4.5683756220        1.7534623556      -11.4612446278
 C        -6.2637734819        2.8902458627      -12.7956957190
 C        -5.2183475875        4.1219165485      -12.5491482662
 O        -5.5951225851        5.1946649916      -12.1463307207
 C        -3.8445060417        3.9835657552      -13.1461346248
 C        -2.9757980901        5.3796946136      -13.2661820249
 C        -2.7549906365        6.2151524065      -11.9879658697
 O        -2.7955011094        5.7603152780      -10.8853731428
 C        -2.3857504277        7.6940202978      -12.0745280760
 C        -2.6442113490        8.4848917174      -10.7350426816
 O        -1.8687334853        9.3624424785      -10.3854189010
 C        -4.0020026866        8.2063712301      -10.0146130663
 C        -3.6534699875        7.4703939892       -8.6614142384
 C        -4.8352095012        6.6192243180       -8.0647322680
 O        -4.9410676060        5.4108572268       -8.4039478056
 C        -5.7476452400        7.2095218450       -6.9801678246
 C        -6.7172153829        6.1116848685       -6.4043581236
 O        -6.1921370524        5.1181756712       -5.9404800599
 C        -8.2727203721        6.3930965966       -6.2105201027
 C        -9.1245692662        5.1188817378       -5.9117618217
 C        -9.3922928309        4.3117663089       -7.2067910619
 O        -9.1867144780        4.6959005055       -8.3322579383
 C        -9.7889288790        2.7586598917       -7.0012374766
 C        -8.3846905915        2.2257018121       -6.3773260005
 O        -8.0364554158        2.4910673155       -5.2431220570
 C        -7.3236725953        1.3518488539       -7.2981147567
 C        -5.9508577811        1.1762794415       -6.6005178267
 C        -4.7792966345        1.6398443538       -7.4288698467
 O        -4.9962568251        2.0656497543       -8.5483833349
 C        -3.2688184531        1.8150959873       -6.8878729752
 C        -2.3373993708        1.5923450768       -8.0702866469
 O        -2.2699286506        2.4353362693       -8.9768472008
 C        -1.5817856412        0.2447897705       -8.2168463766
 C        -0.4409193065        0.4236410698       -9.1980650764
 C         0.4228084612       -0.7908532021       -9.4950464080
 O         0.2393076545       -1.8907852088       -8.9822905713
 C         1.7063261669       -0.5866826697      -10.4896992912
 C         2.9559257169       -1.4431341348       -9.9573253134
 O         3.8114648312       -0.7989690983       -9.4297339231
 C         2.7090696621       -2.9934380294       -9.8939068942
 C         4.0187672197       -3.8452949146       -9.4678337134
 C         3.6329965408       -5.3722682975       -9.5175403816
 O         2.5568298868       -5.7322536859       -9.7614041388
 C         4.7928661142       -6.3936178803       -9.0568795193
 C         4.5541076841       -7.8733436376       -9.3152447409
 O         3.4945292494       -8.3453262333       -9.7967533626
 C         5.5710244028       -9.0215011241       -9.0296711589
 C         5.0177553098      -10.2604423522       -8.4368737273
 C         4.6924039431      -10.0253264651       -6.9777497187
 O         4.9851798794       -8.9721378675       -6.4544595682
 C         4.0545394306      -11.2097164460       -6.0863141808
 C         2.4663525769      -10.8997022735       -6.1076842446
 O         1.7158253964      -11.3423273349       -6.9743965751
 C         1.8305895910       -9.9022877103       -4.9839999063
 C         0.4054695203       -9.5878335747       -5.3921313864
 C         0.0558691563       -9.2474828604       -6.8661713168
 O         0.7050433103       -8.3340909571       -7.4001898703
 C        -1.2304414406       -9.7623512866       -7.6197715512
 C        -0.9663420469       -9.6024643034       -9.2454250985
 O         0.1135857287       -9.7413173186       -9.6595363213
 C        -2.1113906537       -9.3436693086      -10.2538308644
 C        -1.5026527145       -8.5670169615      -11.4302162741
 C        -1.3366979650       -7.0909105362      -11.2474255567
 O        -0.7746726809       -6.7456880127      -10.1785201459
 C        -1.8234527321       -6.0334045374      -12.2803205700
 C        -3.3858054366       -6.0953402650      -12.5311546797
 O        -4.1474758498       -6.6410343980      -11.7266614766
 C        -3.9242749909       -5.2446810519      -13.7503477123
 C        -5.4947952786       -5.5586789020      -13.8798306588
 C        -6.0710573857       -4.9152594283      -15.2147720556
 O        -5.4031510878       -4.0908570888      -15.7965756518
 C        -7.5444634562       -5.2434155762      -15.6140251603
 C        -8.3624279525       -3.9758255856      -15.0740585902
 O        -8.4391544620       -3.8156168767      -13.8702577309
 C        -8.8752645005       -2.8841077505      -16.0300905475
 C        -8.9877273387       -1.5172613001      -15.3457038828
 C       -10.3859073522       -0.9264794929      -15.7021145443
 O       -11.1404025173       -1.5893405860      -16.3942500409
 C       -10.8039658311        0.5077062915      -15.0778590774
 C       -10.1702870861        0.6292108378      -13.6692847566
 O        -8.9641208573        0.9343544879      -13.5561247255
 C       -11.1033534234        0.2085525802      -12.5386508450
 C       -10.2375192500        1.7355970829      -15.8418390202
 C       -12.3709702909        0.4732294657      -15.2266583397
 C        -7.7453317569       -5.3925690727      -17.1703565215
 C        -8.0188793132       -6.4337183487      -14.8506074783
 C        -1.3334530255       -4.6290990742      -11.9605057909
 C        -1.0404053635       -6.3538127560      -13.6177199138
 C        -1.5504947837      -11.3294447090       -7.4796661156
 C        -2.3788522346       -8.8946886907       -7.1665333354
 C         4.3406167927      -12.5401332311       -6.8148824119
 C         4.7230636211      -11.2901669924       -4.6218806330
 C         6.0924078997       -6.0911206155       -9.7983765407
 C         4.7410985983       -6.1818121034       -7.4738834571
 C         1.2035037217       -0.9065426376      -11.8687057279
 C         2.1475209231        0.9358248936      -10.2801350641
 C        -3.2220389344        3.2892521057       -6.4740250565
 C        -2.9605075232        0.8581891042       -5.7082900603
 C       -10.9100632588        2.3665624315       -5.9140038578
 C       -10.3510666609        2.1370468477       -8.3573575125
 C        -5.0011034991        7.7135405270       -5.7722471582
 C        -6.5308660765        8.2692168703       -7.7343492904
 C        -0.9445943032        7.7791099264      -12.4496619330
 C        -3.2514698418        8.3876932091      -13.1532435098
 C        -6.5485753188        2.6781632970      -14.3288442306
 C        -7.6256238379        3.3011241041      -12.0978656107
 H        -7.3357168884        0.4083881606      -11.9113692562
 H        -5.7916323139       -0.3839524300      -11.7117162837
 H        -6.2767797283        0.1176148392      -13.4260177642
 H        -3.9374404944        3.5835431996      -14.1700030234
 H        -3.0939005569        3.3285368214      -12.5961682570
 H        -3.4243016005        6.0290447412      -14.0168007545
 H        -2.0271974813        5.1245814901      -13.7812504765
 H        -4.5374709910        7.4942614277      -10.5577060182
 H        -4.7113361202        8.9461480399       -9.7778476095
 H        -3.1837591636        8.2625819510       -8.0458881687
 H        -2.9301249903        6.6700498357       -8.7669134166
 H        -8.6558896266        6.8078461001       -7.0841383149
 H        -8.3511038310        7.1697282771       -5.4309743702
 H       -10.1043184606        5.4904700424       -5.5641080343
 H        -8.5957336895        4.3834148509       -5.2488606329
 H        -7.1496100307        1.7824609659       -8.2745140810
 H        -7.8593853089        0.3708798555       -7.3665079532
 H        -5.6625143348        0.1216863529       -6.3736126071
 H        -5.9239718416        1.6832044126       -5.6451442616
 H        -2.2833555769       -0.4709657965       -8.6441302903
 H        -1.2729977716       -0.0763397056       -7.2469884804
 H         0.1774467910        1.1662586772       -8.7628159098
 H        -0.7544036762        0.8466565168      -10.1121238506
 H         2.5676248169       -3.3027484562      -11.0310992575
 H         1.8047832232       -3.0837948551       -9.2457019497
 H         4.5424819013       -3.4811702972       -8.5440476331
 H         4.7071512726       -3.8645732146      -10.3462857243
 H         6.4312531606       -8.6576409025       -8.4040742564
 H         5.9059940391       -9.1320591524      -10.0670778312
 H         5.7364466012      -11.0599805221       -8.6139504960
 H         4.2285901842      -10.6020246911       -9.0808989326
 H         2.4204316348       -9.0574679917       -4.9924234363
 H         1.9428853041      -10.3063505346       -4.0256359144
 H         0.2323388903       -8.5308338392       -4.9979027388
 H        -0.2372542793      -10.3939504812       -4.9638964450
 H        -2.9173655759       -8.6634538388       -9.8532749883
 H        -2.5288710865      -10.3355416684      -10.4748983384
 H        -1.9501306195       -8.7134076316      -12.4315218544
 H        -0.6252344151       -8.9629022740      -11.6705010189
 H        -3.3793132322       -5.3427920385      -14.6605188819
 H        -3.7379415548       -4.2561248173      -13.3308718687
 H        -6.1552171151       -5.1172016262      -13.1303601066
 H        -5.6490329358       -6.6199984287      -13.9384317714
 H        -9.8233768025       -3.1878761486      -16.4485867152
 H        -8.2092632774       -2.8420671873      -16.8457631632
 H        -8.2372787585       -0.9267857262      -15.7348062848
 H        -8.8606043520       -1.6351565010      -14.2378738087
 H       -11.4914421905       -0.7977774357      -12.6936124969
 H       -11.9947593972        0.7917050275      -12.6348287217
 H       -10.6759294647        0.1138623013      -11.5325154346
 H        -9.1503850665        1.7249289345      -15.7486190762
 H       -10.6158220100        2.5837654364      -15.3444128638
 H       -10.6222827530        1.7416849044      -16.8206092698
 H       -12.6504206011       -0.6179010715      -15.1084633245
 H       -12.5738557445        0.8428617935      -16.2756324065
 H       -12.8347266718        1.1366183404      -14.5122685439
 H        -8.7499587300       -5.3967942622      -17.4558098317
 H        -7.2043140084       -6.3606629409      -17.4592352446
 H        -7.1345556763       -4.6387883333      -17.6640650827
 H        -7.9714946583       -6.3258857729      -13.7469127650
 H        -7.4986043007       -7.3279459901      -15.2530369303
 H        -9.0052048275       -6.6984379413      -15.1208248237
 H        -1.6129491012       -3.9667253636      -12.7837085032
 H        -0.2622457804       -4.6054917250      -11.9136718601
 H        -1.7186097638       -4.2116126189      -11.0558663177
 H        -0.1879850297       -5.7009244334      -13.6500900862
 H        -1.6887311182       -6.2685249550      -14.4630977714
 H        -0.7507897012       -7.4513122831      -13.6484851579
 H        -2.0100013399      -11.8069362464       -8.3358472372
 H        -2.3447979595      -11.5431631649       -6.7495815511
 H        -0.6438653664      -11.8890877643       -7.2224689849
 H        -3.3170894690       -9.1389259709       -7.6643539622
 H        -2.2099639901       -7.8878854476       -7.4567352794
 H        -2.5666106088       -8.8594091697       -6.1045841483
 H         3.9045312908      -12.5482201328       -7.8600388556
 H         3.7770753548      -13.3932529164       -6.3350532627
 H         5.4431256975      -12.7294440941       -6.7935347925
 H         5.6242862777      -11.8995363353       -4.5679014731
 H         3.9956914039      -11.7371250213       -4.0265604169
 H         5.0250728228      -10.3001494499       -4.3656094997
 H         6.9017104068       -6.6907375523       -9.3357623400
 H         6.4012801386       -5.0796819284       -9.5854490500
 H         5.9673768113       -6.2361821330      -10.8390623121
 H         3.6506576610       -6.3033608701       -7.2462098196
 H         5.0368580067       -5.1727539916       -7.2578846468
 H         5.3543796958       -6.8679521031       -6.9649067023
 H         0.9322475142       -1.9152216749      -11.8755126696
 H         2.0394258218       -0.6095545482      -12.5165751056
 H         0.3330087504       -0.3702946848      -12.1676922331
 H         2.8279645206        1.1995841997      -11.0127413176
 H         2.6004279979        1.0134568163       -9.3064548598
 H         1.2585123006        1.6761501796      -10.4023640394
 H        -4.0385043738        3.4897299953       -5.7671238779
 H        -3.3404826919        3.9539458793       -7.3213226659
 H        -2.2821169637        3.5058450085       -5.8920384073
 H        -3.5839339797        1.1040450760       -4.7900272036
 H        -1.9233711827        0.9658015878       -5.2753964026
 H        -3.0954644716       -0.1911185741       -5.8636757972
 H       -11.9025615647        2.8061319125       -6.1632775357
 H       -10.5479337846        2.5833948450       -4.9044617745
 H       -10.9995185567        1.2313868737       -5.8487936752
 H        -9.5270138102        1.8635447281       -9.0602963085
 H       -11.0197510865        2.8888241304       -8.8443579988
 H       -10.8883750869        1.2386646640       -8.1424207069
 H        -5.6231786349        7.7389441337       -4.9010793390
 H        -4.5411994611        8.7144975138       -5.8367723697
 H        -4.1657233355        6.9996261732       -5.5367562757
 H        -6.8057566982        7.7434141987       -8.6217433339
 H        -6.0086045414        9.1441777457       -7.9554335535
 H        -7.3423972079        8.6177044092       -7.1470172841
 H        -0.3207750054        8.4360167380      -11.9178517084
 H        -0.8645538785        7.9340879551      -13.5420353677
 H        -0.5622495785        6.8065439765      -12.2422038061
 H        -4.2827266037        8.3058740026      -12.9842506692
 H        -3.1095129801        7.9325877146      -14.1805154974
 H        -3.0566463095        9.3943556552      -13.3406475856
 H        -5.6207564992        2.4483542882      -14.7899455484
 H        -6.8703904063        3.6375330997      -14.7262365909
 H        -7.2110668953        1.8420178271      -14.4009435595
 H        -7.8424565369        4.3502257478      -12.3286462566
 H        -7.6054792382        3.1119741137      -10.9519099683
 H        -8.3842097798        2.5342717507      -12.3633079023
 Na       -4.0896798915        3.6180442602       -9.9607352382
 Na        1.3377376120       -7.7984270372       -9.6237702065
