232

 C        -6.2683569158        0.3116591946      -12.3566158794
 C        -5.5176526437        1.6474398139      -12.2109364446
 O        -4.5338289749        1.7351520305      -11.4571902825
 C        -6.1751072692        2.9554684231      -12.7584683836
 C        -5.2814945292        4.2025896008      -12.6552886931
 O        -5.7129419427        5.1617926016      -12.0984794419
 C        -3.7906681868        4.0072055237      -13.0697185821
 C        -3.1456593851        5.3648990357      -13.1951649435
 C        -2.8107706624        6.1438241484      -11.9402824997
 O        -2.7417242950        5.5836497271      -10.7743058340
 C        -2.3469352282        7.7083270072      -12.1539852188
 C        -2.6760857096        8.4762130226      -10.7246192966
 O        -2.0195104391        9.3671086833      -10.3424228729
 C        -3.9461878080        8.1360748770       -9.9801984593
 C        -3.5345684931        7.4677764142       -8.5515751234
 C        -4.7042637589        6.5728284728       -7.9437249991
 O        -4.8461480867        5.4519486510       -8.3787857830
 C        -5.7862926277        7.2989311530       -6.9518326777
 C        -6.6552359721        6.1786285038       -6.3803653185
 O        -6.1245813708        5.1637485490       -5.9276494617
 C        -8.2341142568        6.3742907505       -6.3274297523
 C        -9.1239852308        5.1127437134       -6.0289708008
 C        -9.3294684061        4.2370924243       -7.2239505141
 O        -9.1148225319        4.6824349012       -8.3399334486
 C        -9.7449742328        2.6680228722       -7.0115921248
 C        -8.3235218389        2.1344905237       -6.3953983378
 O        -8.1610474522        2.6021088529       -5.3254906080
 C        -7.3646775665        1.2649226933       -7.1325261777
 C        -5.9267924465        1.0979189074       -6.4956131312
 C        -4.8225641710        1.6624008663       -7.4539397648
 O        -5.0636758420        1.9784213010       -8.5681352533
 C        -3.2174391807        1.9355650567       -6.9426591921
 C        -2.3920235236        1.5463916246       -8.1936500820
 O        -2.2720889646        2.2483026900       -9.1707406631
 C        -1.5856061765        0.1433898304       -8.3636116962
 C        -0.3840695018        0.3511354462       -9.2816304518
 C         0.4872851534       -0.8346304036       -9.5668313369
 O         0.3324067671       -1.8987814507       -9.0120359764
 C         1.6975174283       -0.5881011221      -10.5346260102
 C         2.9195088546       -1.3989440551       -9.8776959619
 O         4.0004371356       -0.9251745478       -9.5256964710
 C         2.8175358201       -2.9998740543       -9.8942733117
 C         4.0893423915       -3.7998257295       -9.6085462263
 C         3.7020427990       -5.3297241378       -9.4991099043
 O         2.5312047233       -5.6798757708       -9.7668146057
 C         4.7308739739       -6.2765876480       -8.9371909092
 C         4.3754012018       -7.7939991054       -9.3103313334
 O         3.3244752047       -8.1726270674       -9.6852940694
 C         5.5522463614       -8.8498349359       -9.0808793572
 C         4.9938301615      -10.1157943925       -8.4833174317
 C         4.6956885773      -10.0691283651       -6.9358863603
 O         5.0525555538       -9.0582222598       -6.3433733124
 C         4.0620781106      -11.2144150148       -6.0667690760
 C         2.4573384080      -10.9810674599       -5.9514249173
 O         1.7613004382      -11.5924737833       -6.7238793152
 C         1.7929442348       -9.9164782724       -5.0324825786
 C         0.2596925535       -9.6691837283       -5.3414720577
 C         0.0442660541       -9.3358637590       -6.8918407546
 O         0.7711877891       -8.5016659198       -7.3749603910
 C        -1.1840624394       -9.9232915950       -7.6478596246
 C        -1.0402264368       -9.7387390677       -9.2121457611
 O         0.0649061347       -9.9588415899       -9.7013457097
 C        -2.2161805991       -9.2808314358      -10.1228820010
 C        -1.6849713157       -8.6506036922      -11.3937650294
 C        -1.4124278002       -7.0844815762      -11.1943339929
 O        -0.8881757302       -6.6555635104      -10.1440374528
 C        -1.8398211231       -6.0037210262      -12.2771277676
 C        -3.4175280039       -6.0299623198      -12.4536949129
 O        -4.1110230205       -6.6897984723      -11.6948832967
 C        -4.0136750678       -5.3131012612      -13.6938756559
 C        -5.4290410397       -5.7389080988      -13.9949206954
 C        -6.0520345842       -4.8750664716      -15.1875145954
 O        -5.4321205410       -4.0381759242      -15.7999147380
 C        -7.5576653482       -5.2267415366      -15.6666819491
 C        -8.3586758116       -3.9293656506      -15.2237819783
 O        -8.5670713710       -3.7948130074      -14.0344187320
 C        -8.9774740841       -2.9171726637      -16.1996145834
 C        -9.0865753057       -1.5656920938      -15.4671849371
 C       -10.4328440086       -0.8377747622      -15.7901363691
 O       -11.2938510414       -1.4966292399      -16.3140219188
 C       -10.8323442424        0.4945186226      -15.1418673367
 C       -10.2683080580        0.5562897157      -13.7136045801
 O        -9.1252743970        0.9072630846      -13.4921767004
 C       -11.1381641382        0.3495534119      -12.4755651331
 C       -10.1404716009        1.6909699852      -15.8449216418
 C       -12.3986237381        0.4769070340      -15.0598601763
 C        -7.5648128456       -5.4283806017      -17.1934434190
 C        -8.0949687998       -6.4715671241      -14.9288503696
 C        -1.5619820467       -4.5282981607      -11.7962764524
 C        -1.0490623319       -6.3165508107      -13.6938640396
 C        -1.4206609602      -11.4026372007       -7.4120924313
 C        -2.1974868965       -8.9720195088       -6.9831289984
 C         4.3431511430      -12.6393962022       -6.7621314800
 C         4.7724003867      -11.1300056625       -4.7112458548
 C         6.0857917752       -5.9361239477       -9.6961883472
 C         4.8116818250       -6.0819842961       -7.3591734791
 C         1.3077770204       -0.9809463198      -12.0176855618
 C         2.1579418007        0.9243453354      -10.5000054440
 C        -3.2013898766        3.4117535024       -6.5286643581
 C        -2.8620413645        0.9932517427       -5.7463738672
 C       -10.7817403701        2.4730598783       -5.9012940496
 C       -10.2685763160        2.1719853928       -8.3129465605
 C        -5.0433083770        7.9650848191       -5.6786586911
 C        -6.4656686962        8.4033135093       -7.9014537900
 C        -0.8023666708        7.9054075890      -12.6050237723
 C        -3.2357664327        8.4617681727      -13.1428462623
 C        -6.5938327310        2.8548089980      -14.2638822573
 C        -7.5757420461        3.2319177650      -12.0620038582
 H        -7.2901356927        0.5078406780      -12.0148436508
 H        -5.9018111680       -0.4245212275      -11.6566845834
 H        -6.2134342846       -0.0273411479      -13.4181670492
 H        -3.6310721834        3.4193523785      -13.9859279307
 H        -3.1612618399        3.5208712126      -12.2447866083
 H        -3.8065909246        6.0173162374      -13.7718710892
 H        -2.2538482212        5.3389462680      -13.8212595725
 H        -4.6492510284        7.5426185874      -10.4726193952
 H        -4.4676404358        9.0052283567       -9.6674406518
 H        -3.2132323696        8.3570137611       -7.9929855046
 H        -2.6736914780        6.7765281161       -8.5685783228
 H        -8.5900280169        6.8513007226       -7.2443584366
 H        -8.4152107540        7.1096546959       -5.5032668007
 H       -10.1229008309        5.6084148533       -5.7189951423
 H        -8.6959528392        4.4850764935       -5.3414419297
 H        -7.0837475505        1.7355756683       -8.1262334184
 H        -7.8753037746        0.3318459759       -7.2713639085
 H        -5.6195218646        0.0727256504       -6.3404851892
 H        -5.7226380429        1.5891638551       -5.5581850748
 H        -2.2821431620       -0.6185818031       -8.8347944658
 H        -1.2162984954       -0.2576746872       -7.3673236248
 H         0.1394642886        1.1169550000       -8.8417370677
 H        -0.6476453209        0.6408175620      -10.2514359331
 H         2.2885448924       -3.3144340462      -10.7968118132
 H         2.3138162695       -3.1713558827       -8.9142364377
 H         4.3078353705       -3.5126642014       -8.5087487402
 H         4.9615312071       -3.6991166513      -10.3251110328
 H         6.3135823730       -8.3644183031       -8.4402869832
 H         5.9471432089       -8.8820417918      -10.1103075393
 H         5.5541577480      -11.0049249080       -8.8174156277
 H         4.1014101551      -10.2624611606       -9.0902402515
 H         2.3806761224       -9.0649060908       -5.1635083235
 H         1.9599369867      -10.1865297839       -4.0488864837
 H         0.0035170099       -8.7431181951       -4.7070265913
 H        -0.2088867656      -10.5400861632       -5.0719157007
 H        -2.9475339107       -8.6524189187       -9.6540259748
 H        -2.6538717718      -10.2723986265      -10.3246427012
 H        -2.2204115934       -8.7085249106      -12.3084550275
 H        -0.8477586151       -9.2590503397      -11.8045561679
 H        -3.3273791382       -5.5376957770      -14.5286881949
 H        -3.9369045770       -4.1814022751      -13.4611332340
 H        -6.1259853126       -5.7253880512      -13.1880543590
 H        -5.4249608691       -6.7969413478      -14.4838883655
 H        -9.9186412664       -3.2920119513      -16.3825165967
 H        -8.4451394465       -2.9425643156      -17.1772496906
 H        -8.2164879894       -0.9999007211      -15.6862393872
 H        -9.0438339370       -1.8371636971      -14.4001364420
 H       -11.6931142064       -0.5318269718      -12.3351647829
 H       -11.8850361805        1.1129289795      -12.4388571521
 H       -10.4382700742        0.3131095792      -11.6344644504
 H        -9.0705440739        1.4578642635      -15.7839071889
 H       -10.3472114424        2.5227789622      -15.1646821891
 H       -10.5325042536        1.9230487000      -16.7894026995
 H       -12.7237014533       -0.4515620873      -14.7443306196
 H       -12.7456727734        0.7188262073      -16.0907463557
 H       -12.6295280861        1.3319559800      -14.3848359248
 H        -8.5981132429       -5.4987006724      -17.5087331677
 H        -6.9397872980       -6.3520996491      -17.4082349314
 H        -7.0468278578       -4.6414062042      -17.7620559080
 H        -7.8684566183       -6.5562028345      -13.8413665815
 H        -7.8151395355       -7.3082907193      -15.4972229421
 H        -9.1771298289       -6.6016469210      -15.0647033954
 H        -1.8308381918       -3.7939139617      -12.5038184343
 H        -0.5298831607       -4.3581002981      -11.6023235136
 H        -2.1447917419       -4.3262780316      -10.8764686178
 H        -0.1407382768       -5.6638342261      -13.6364401512
 H        -1.6758911976       -5.9752496698      -14.5400257618
 H        -0.8727387852       -7.3632041287      -13.8548481792
 H        -1.7700175499      -11.9362416322       -8.3224171308
 H        -2.2728504689      -11.6408005816       -6.8359251632
 H        -0.5303177366      -11.8974770697       -7.0954000609
 H        -3.2348247302       -9.1655008615       -7.1992899795
 H        -2.0274899442       -7.9693388832       -7.3064345129
 H        -2.0495750325       -8.9314964268       -5.9081561902
 H         3.8228403058      -12.7052533478       -7.7617158456
 H         3.9149859719      -13.4879058783       -6.1923849749
 H         5.4319326045      -12.7636023805       -6.8498086246
 H         5.7258837918      -11.5986803231       -4.8078356998
 H         4.2426453268      -11.6158121244       -3.9416071914
 H         5.0300120751      -10.1080170911       -4.5814604849
 H         6.9079936464       -6.1230321860       -9.0317871556
 H         6.2098811716       -4.8810325141       -9.7897551557
 H         6.1695276547       -6.4259095263      -10.6856120848
 H         3.7915415651       -6.1606932620       -7.0560084493
 H         5.2938450161       -5.1991915010       -7.1148276706
 H         5.3649558134       -6.9727805105       -6.9268139944
 H         0.9549670493       -2.0066851604      -11.9738557927
 H         2.0920988373       -0.7099289092      -12.6039649814
 H         0.4562268580       -0.3972515325      -12.3711081429
 H         2.7070535166        1.2293382605      -11.3867167842
 H         2.7567560990        1.0899974578       -9.6153237462
 H         1.3229305494        1.5026453032      -10.4624461560
 H        -3.7811288861        3.6549613585       -5.6113896265
 H        -3.5860869917        3.9976693919       -7.4024933618
 H        -2.1599286151        3.7148365064       -6.3431010246
 H        -3.1796274070        1.3129081421       -4.7025313636
 H        -1.7843013951        0.8677014670       -5.5777881325
 H        -3.1564600030       -0.0680191649       -5.9115572389
 H       -11.7046537129        3.0720819302       -6.0946286303
 H       -10.3512536241        2.6713617508       -4.9391978273
 H       -11.0420328364        1.3948567168       -5.8363271365
 H        -9.4963872780        2.3286344536       -9.0680834270
 H       -11.1992920832        2.7569086002       -8.6293162118
 H       -10.4748836406        1.0757636434       -8.2575936840
 H        -5.6309466821        7.8919232480       -4.7780736834
 H        -4.8496140411        9.0718187928       -5.7473970516
 H        -4.0522561139        7.4774994114       -5.4844868397
 H        -7.0360405199        7.8346711423       -8.6604964557
 H        -5.7953959561        9.0722851813       -8.3316451885
 H        -7.0423928845        9.0986410777       -7.2511557720
 H        -0.5021230784        8.9008864712      -12.2763494698
 H        -0.6739400330        7.8095037252      -13.6649360838
 H        -0.1503414891        7.3047419003      -12.0798340162
 H        -4.2976481737        8.4752008807      -12.9118037488
 H        -3.2216016741        8.0822650321      -14.1605360588
 H        -2.9816376686        9.5163174383      -13.2806110911
 H        -5.6790186295        2.7978535286      -14.8380247833
 H        -7.1406910726        3.7329885085      -14.5618398499
 H        -7.1649086562        1.9467921512      -14.2700665962
 H        -7.8455301687        4.2064648847      -12.3845710085
 H        -7.6297798105        3.1791942754      -10.9784040266
 H        -8.1852104922        2.4203816610      -12.3111638762
 Na       -4.1535789887        3.6506084249       -9.9702104399
 Na        1.3781807431       -7.8766676229       -9.6537828411
