232

 C        -6.1734172179        0.2885434292      -12.4211958249
 C        -5.5941106485        1.6641794520      -12.1578654589
 O        -4.5752073002        1.7064168012      -11.5079071460
 C        -6.2422132823        2.9213099904      -12.7870068739
 C        -5.2878097597        4.1686828544      -12.4990301490
 O        -5.6777836735        5.2652659819      -12.0529309342
 C        -3.8070298205        4.1338368567      -12.9173506948
 C        -3.2390943827        5.5104191004      -13.2173250218
 C        -2.7003276455        6.1735973958      -11.9665982973
 O        -2.7253201207        5.4996642628      -10.8947978480
 C        -2.3901437157        7.7202465460      -12.0410301023
 C        -2.6528895594        8.4129807897      -10.6795955576
 O        -1.9877730527        9.4044131964      -10.3957722877
 C        -3.8511713158        7.9449132169       -9.8718314883
 C        -3.4888186502        7.4962772504       -8.4569003095
 C        -4.6046502864        6.6835293497       -7.9797806200
 O        -4.8315939232        5.5496370849       -8.2547409794
 C        -5.7150213611        7.3125140809       -7.0505626481
 C        -6.6592948050        6.1543677887       -6.4166745272
 O        -6.1556433875        5.1954516029       -5.8967178611
 C        -8.1858721213        6.4208767273       -6.4572562192
 C        -9.0378072843        5.2509013446       -6.0291606191
 C        -9.1880283822        4.2225398513       -7.2489304634
 O        -9.1007938778        4.5494805311       -8.4152865534
 C        -9.6210603938        2.7332841945       -7.0136779102
 C        -8.2653866444        2.1229934464       -6.3352838264
 O        -7.9928732974        2.5103782285       -5.2039448332
 C        -7.3577651611        1.1323872625       -7.1496889209
 C        -5.9434928617        1.1543435612       -6.4539470398
 C        -4.8024985178        1.7032666725       -7.4224656427
 O        -5.2042523714        1.9310754268       -8.5540571689
 C        -3.3339576756        1.8334590359       -7.1111441296
 C        -2.4322163946        1.4467100151       -8.3698941120
 O        -2.4042617624        2.2089066064       -9.2947189992
 C        -1.6416804645        0.1557564826       -8.4141561892
 C        -0.4326326357        0.3839311966       -9.3414575312
 C         0.6071340790       -0.8555752278       -9.5582558672
 O         0.3365137308       -1.9174458440       -9.0767742637
 C         1.8388615051       -0.6068219234      -10.4723202814
 C         3.0545295103       -1.4745126931      -10.0831559329
 O         4.0646616035       -1.0055311045       -9.6399148117
 C         2.7249418881       -2.9684070000       -9.8529958540
 C         3.9462922005       -3.7337394702       -9.6883643914
 C         3.6630033394       -5.2148231816       -9.4881802176
 O         2.4772782142       -5.5475772495       -9.7888979171
 C         4.7361495536       -6.1812715241       -8.8820789502
 C         4.4522921240       -7.6904543825       -9.1801050363
 O         3.4401157641       -8.1127977039       -9.6360355898
 C         5.5196553485       -8.7520077559       -9.0006635778
 C         4.8212100842      -10.0639313708       -8.4201355308
 C         4.7139819854      -10.0224935734       -6.9227564013
 O         5.1018741159       -9.0374603496       -6.3078257498
 C         4.0840763527      -11.1478047383       -6.1140600034
 C         2.5114197531      -11.0515794754       -5.9986516225
 O         1.7772998277      -11.8762266230       -6.4868434400
 C         1.8589295328       -9.9446125696       -5.1499060599
 C         0.3546119525       -9.8926556338       -5.4398386271
 C         0.2791379054       -9.4922243970       -6.9166214632
 O         0.9797627839       -8.6236019651       -7.3869984336
 C        -1.0960915261       -9.9688707291       -7.6034378959
 C        -1.0047758547       -9.7462654710       -9.1342465107
 O         0.0217671460      -10.1401462236       -9.7740433996
 C        -2.1899688698       -9.1931192720       -9.9453676682
 C        -1.9452623943       -8.4852626056      -11.3261674046
 C        -1.5062633678       -7.0036658446      -11.1509540124
 O        -0.8939293055       -6.6928880615      -10.1863683697
 C        -1.8801869392       -5.9897995065      -12.2775981535
 C        -3.4441095515       -6.1781797326      -12.5534116332
 O        -4.0369789195       -6.6903086107      -11.6773135014
 C        -4.1422643841       -5.3409854499      -13.6985744111
 C        -5.3971745086       -5.8477693618      -14.2007482511
 C        -6.0403041878       -4.9506344395      -15.2373005660
 O        -5.4212947620       -4.0181495908      -15.6955692014
 C        -7.5335170591       -5.2370949048      -15.7349723899
 C        -8.4248419834       -3.9730923241      -15.2676015921
 O        -8.6662001820       -3.8001383398      -14.0952463323
 C        -8.9520210472       -2.9362876755      -16.3155643928
 C        -9.1967792157       -1.5560498055      -15.6579952813
 C       -10.5863393650       -0.9884381838      -15.7982115213
 O       -11.5023146746       -1.4646224409      -16.4130962341
 C       -10.8465776012        0.5258327428      -15.0117253667
 C       -10.3224320851        0.5616345782      -13.5576022112
 O        -9.1314413339        0.7948176520      -13.4638773749
 C       -11.2426679899        0.4325625532      -12.3013830432
 C       -10.1628356395        1.6260440408      -15.9667976506
 C       -12.3953631576        0.7178585496      -14.9933857401
 C        -7.3577739837       -5.4283696276      -17.2011705778
 C        -8.2406233497       -6.4501661585      -15.0563629803
 C        -1.7432312052       -4.6184617227      -11.6479022542
 C        -1.0872108505       -6.2595914902      -13.5238114180
 C        -1.3293938054      -11.4817841233       -7.2797624725
 C        -2.3207757025       -9.0887927883       -6.9086920034
 C         4.2540684755      -12.5870990830       -6.6459607469
 C         4.7059177865      -11.0862304870       -4.7236405233
 C         6.2276147866       -5.9016944977       -9.4439730567
 C         4.9083010044       -6.0142206356       -7.4221637414
 C         1.4862476931       -1.1098401490      -11.9422243420
 C         2.2698635557        0.8807220961      -10.7930940288
 C        -3.0933995083        3.3714798193       -6.6861041598
 C        -2.8937270096        1.1380141527       -5.7901524976
 C       -10.6947373680        2.7016611320       -5.9256721039
 C       -10.0588920935        2.0842638051       -8.3747820160
 C        -5.1046074306        8.1600915992       -5.8616765906
 C        -6.4547126958        8.4120594840       -7.8119354391
 C        -0.9463972242        7.9038576280      -12.5097564785
 C        -3.2312191581        8.4150169286      -13.0880459789
 C        -6.5584945633        2.8867537006      -14.3826558657
 C        -7.4627937491        3.1610142560      -11.9034801873
 H        -7.2407195329        0.2862112477      -12.2851693746
 H        -5.7613621522       -0.4705939256      -11.7721078843
 H        -5.8793197179        0.1577828226      -13.4496275234
 H        -3.7542816058        3.5795293210      -13.8781410294
 H        -3.1275688059        3.6757751755      -12.2430046095
 H        -4.0037806170        6.1165213581      -13.7300306206
 H        -2.4516993923        5.4267352215      -13.9651691018
 H        -4.4515831899        7.0887609649      -10.3174692398
 H        -4.5836440135        8.7755992197       -9.7719947863
 H        -3.3202883137        8.3294189588       -7.7927417880
 H        -2.5142706791        6.9415266269       -8.5172087936
 H        -8.4750860587        6.7356650385       -7.5356942016
 H        -8.3989993957        7.2850204325       -5.8193391533
 H        -9.9919099966        5.7411656123       -5.8333872822
 H        -8.6156473217        4.7075876416       -5.1745245883
 H        -7.1619244465        1.4230191943       -8.2054968875
 H        -7.7971119520        0.1489525956       -7.0325802140
 H        -5.6275161693        0.1830363022       -6.1263635557
 H        -5.8465201078        1.8156038154       -5.5510088569
 H        -2.3757659028       -0.5821403559       -8.8465260966
 H        -1.2877811783       -0.2323530318       -7.4048720109
 H         0.0239548294        1.2796626045       -8.8175957660
 H        -0.7487478755        0.6589137528      -10.3701168338
 H         2.3768650314       -3.2960316220      -10.7483316588
 H         2.0257301169       -3.0769607041       -9.0379574113
 H         4.6082120346       -3.3776665242       -8.8806308498
 H         4.3723057027       -3.6856953258      -10.7204839794
 H         6.2359376314       -8.4063750511       -8.2691811660
 H         5.9669343398       -8.7579500375      -10.0062358616
 H         5.5383585354      -10.8764670391       -8.6147312317
 H         3.9574138263      -10.4355317196       -9.0221452288
 H         2.4095219325       -8.9586967124       -5.2696382575
 H         2.0689461798      -10.2386051274       -4.0811807264
 H        -0.1069461946       -9.2360236041       -4.7789403326
 H         0.0132331885      -10.9320687443       -5.3817556070
 H        -2.7956979215       -8.5799938622       -9.3338390474
 H        -2.7651766340      -10.1192888052      -10.1557553250
 H        -2.7048236389       -8.5740759750      -12.0889119186
 H        -1.2298633665       -9.1157526656      -12.0621866887
 H        -3.3009693412       -5.2951822644      -14.4583232195
 H        -4.2895312808       -4.3040616858      -13.2873289194
 H        -6.1589769903       -5.8122893018      -13.3716944754
 H        -5.3915638312       -6.8857742423      -14.6220790053
 H        -9.9256269453       -3.3515922596      -16.6250348413
 H        -8.2953852634       -3.0499033281      -17.2130993582
 H        -8.4347449507       -0.7480890496      -16.0594350168
 H        -8.9551409643       -1.7050780487      -14.6328961484
 H       -11.9418266009       -0.4066997096      -12.3816269775
 H       -11.9221565187        1.2863712685      -12.2094240471
 H       -10.6914620838        0.1574783991      -11.4567573982
 H        -9.1400480052        1.3507333032      -16.1344589786
 H       -10.2854525534        2.6203339117      -15.4799985687
 H       -10.8020981889        1.6495852520      -16.8999109257
 H       -12.9069916668        0.0083593831      -14.3440394553
 H       -12.7425012071        0.5339959624      -15.9599634512
 H       -12.5430655243        1.7493737783      -14.7170718039
 H        -8.4685249402       -5.5743314786      -17.5097952299
 H        -6.7042031482       -6.2275654782      -17.3487277271
 H        -6.9377331768       -4.6117114233      -17.8007141500
 H        -8.1782070787       -6.4028160102      -13.9997373349
 H        -7.9899022863       -7.3957432311      -15.4930885245
 H        -9.3183033336       -6.4648120440      -15.3559714157
 H        -1.9354510522       -3.7333460096      -12.2306029801
 H        -0.7134670897       -4.4754601404      -11.2839691801
 H        -2.4237767263       -4.6464483633      -10.8040042399
 H        -0.0368865745       -6.0013668450      -13.2980445754
 H        -1.4415946675       -5.5851778611      -14.3603670827
 H        -1.2942776463       -7.2710194902      -13.7783156552
 H        -1.7393816639      -12.0550045691       -8.0997974750
 H        -2.1340597024      -11.6925548656       -6.6165826483
 H        -0.4020103545      -11.9668636728       -7.0487915229
 H        -3.2784230875       -9.4693851812       -7.2464821181
 H        -2.3301107062       -7.9733928959       -7.0574167605
 H        -2.2183296695       -9.2028285716       -5.8136672949
 H         3.6106531990      -12.7804120032       -7.4611416509
 H         3.9857610966      -13.2763140514       -5.8718263617
 H         5.2917669919      -12.7586635949       -6.8931568166
 H         5.7504784316      -11.2101151003       -4.8926782982
 H         4.3665593916      -11.8915800664       -4.0426237255
 H         4.6523580182      -10.0555432981       -4.3975563876
 H         6.9889029818       -6.0927373751       -8.7201121173
 H         6.4045193763       -4.8198057896       -9.5864006749
 H         6.3490343607       -6.4344274960      -10.4145405360
 H         3.9469665624       -6.0802213614       -6.9595544390
 H         5.5433535804       -5.0904347894       -7.2784645837
 H         5.4642095030       -6.8814502833       -7.0350459687
 H         1.0217464971       -2.0764478809      -11.7801482242
 H         2.3366851934       -0.9008425391      -12.5880506930
 H         0.6959766365       -0.4733733153      -12.3517492610
 H         3.0095769618        0.8983604631      -11.6257233505
 H         2.6589703699        1.4399744503       -9.9595926664
 H         1.3752587843        1.3197885457      -11.1378576039
 H        -3.4115470802        3.6754875392       -5.6825026746
 H        -3.5397279115        4.0078430328       -7.4788528972
 H        -2.0243722462        3.5125456060       -6.7742525559
 H        -3.1387157843        1.6215652812       -4.8469836781
 H        -1.8176749782        1.1897241379       -5.7640808672
 H        -2.9771943536       -0.0019014716       -5.7301983243
 H       -11.5076641797        3.3722482179       -6.1698508233
 H       -10.2876491902        2.9720106923       -4.9278733347
 H       -11.0369589264        1.7145133252       -5.8559214551
 H        -9.5783603737        2.5551740447       -9.2428143487
 H       -11.1380655672        2.2227326528       -8.5069740376
 H        -9.8240478559        0.9684989795       -8.3409835442
 H        -5.8801557647        8.1746035488       -5.0277766299
 H        -5.0780817425        9.2311226820       -6.0502611876
 H        -4.1481860421        7.9070253012       -5.4558008572
 H        -7.1151062281        7.9700990376       -8.5672609038
 H        -5.7431391113        9.2161550712       -8.2658192006
 H        -6.9487881332        9.0291521488       -7.0331844890
 H        -0.9272551353        8.9798411086      -12.6608515962
 H        -0.8108978704        7.4262512788      -13.4332853890
 H        -0.0932034219        7.8038428463      -11.8156454805
 H        -4.3520060913        8.4624341619      -12.9907514732
 H        -3.1022292872        8.1082128270      -14.0825373305
 H        -2.9522732784        9.5136979569      -13.0988762362
 H        -5.5828752760        2.9047837131      -14.9085853839
 H        -7.1311674865        3.7739914870      -14.6273370262
 H        -7.1895426867        1.9922482646      -14.4994804038
 H        -7.8158471569        4.1365875961      -12.1262642222
 H        -7.1294434560        3.2344763270      -10.9676965303
 H        -8.0615620213        2.2896778910      -11.7794555588
 Na       -4.1348072800        3.7868658100       -9.9559575029
 Na        1.0314476684       -7.8481138050       -9.6030627211
