232

 C        -5.4766103663        0.4647028031      -12.9718131248
 C        -5.4931656849        1.7646967864      -12.1886125844
 O        -4.7927516084        1.8555675870      -11.2167467557
 C        -6.2828243813        3.0322707762      -12.6349578616
 C        -5.2833434070        4.2384564852      -12.4579577687
 O        -5.3075033848        5.0362607098      -11.5073953260
 C        -4.0778360123        4.3282829768      -13.3495989877
 C        -3.2690487168        5.5895358248      -13.3678894692
 C        -2.8059027198        6.1896771777      -12.0421708912
 O        -2.6418478236        5.4117979895      -11.0794403009
 C        -2.3182195236        7.6830500585      -12.1334229195
 C        -2.5229181576        8.3560317734      -10.7319370034
 O        -1.7207391167        9.1478408217      -10.2258519290
 C        -3.8569622194        8.1671437584       -9.9742596696
 C        -3.5458492195        7.4646847843       -8.6127436934
 C        -4.7247690501        6.7548689058       -8.0364780695
 O        -4.9230727474        5.5996452866       -8.2834452299
 C        -5.6297457834        7.5809354633       -7.0650545430
 C        -6.6935202904        6.4685759824       -6.4186821789
 O        -6.1466473452        5.6333689592       -5.7314981352
 C        -8.2478131187        6.5018631270       -6.6768952541
 C        -8.9197926698        5.2307916640       -6.3197491187
 C        -8.9009332842        4.1305799338       -7.4189536601
 O        -8.5746701226        4.2485176393       -8.5766911200
 C        -9.3342638555        2.6840850759       -6.8537340407
 C        -8.0873078736        2.0753531863       -6.0935524332
 O        -7.8607324330        2.4847718776       -4.9482398736
 C        -7.1739761810        1.0170925874       -6.9085648399
 C        -5.5662547377        1.0549167349       -6.6018471911
 C        -4.7589871775        1.8976234075       -7.5970727522
 O        -5.3466739351        2.6676616713       -8.3820404312
 C        -3.1835630520        1.8660965662       -7.3902812877
 C        -2.3648721470        1.6715053612       -8.7395350650
 O        -2.5915253373        2.1481414231       -9.8292397590
 C        -1.3218289901        0.5867157297       -8.6611199843
 C        -0.1813909758        0.6682652026       -9.6600083979
 C         0.5762091698       -0.6671214571       -9.8844473959
 O         0.2071323515       -1.6881324075       -9.3585551844
 C         1.8757658499       -0.6182057780      -10.8326614618
 C         3.0347336741       -1.4236315492      -10.1456422275
 O         4.1433803399       -1.0085008716      -10.1798482891
 C         2.6663704172       -2.9058353911       -9.6913378581
 C         3.8349949215       -3.8394165666       -9.9725230369
 C         3.5643955561       -5.2172919809       -9.4089030607
 O         2.3473405912       -5.4830572682       -9.3684780773
 C         4.6242785467       -6.2618706647       -8.8643907175
 C         4.4190153275       -7.7754635366       -9.0359432100
 O         3.4020505540       -8.3273852604       -9.4132392933
 C         5.5793882081       -8.8175946114       -8.6722226329
 C         5.0008357070      -10.1065450172       -8.0552088602
 C         4.7499757921       -9.9291348926       -6.5963078485
 O         4.6151567708       -8.8528747088       -6.0080181600
 C         4.3552133694      -11.3419163979       -5.8720399493
 C         2.7922800749      -11.3984877181       -5.7079847245
 O         2.1172402095      -12.3505153184       -6.0667699536
 C         2.0848204450      -10.1505951525       -5.0164847512
 C         0.6539724525       -9.9428867896       -5.4137938850
 C         0.3453774305       -9.6886914228       -6.9344539142
 O         1.1195160396       -9.1563798249       -7.6843414200
 C        -1.1254107099      -10.2183715215       -7.4931364187
 C        -1.2767551810       -9.6467178421       -8.9723939437
 O        -0.2575275121       -9.7201657485       -9.7049623270
 C        -2.5315895679       -9.0695534857       -9.5993447318
 C        -2.1875324127       -8.4746861428      -10.9993017249
 C        -1.6764818836       -7.0132071398      -10.8823684112
 O        -0.8855283446       -6.5862766211      -10.1361785598
 C        -2.3506800545       -5.9699665810      -12.0889421410
 C        -3.8370751593       -6.2139482465      -12.4691292683
 O        -4.5244380217       -6.9806085397      -11.8486736435
 C        -4.2745888718       -5.4974611048      -13.8730668267
 C        -5.6290194751       -5.8969203624      -14.3853425281
 C        -6.3307295221       -4.7846392203      -15.2223611644
 O        -5.7552505869       -3.7318063182      -15.4077477690
 C        -7.6722235399       -5.0391330930      -15.9501753176
 C        -8.6299614860       -3.9170620902      -15.4569154588
 O        -8.7538549403       -3.7536640865      -14.2564678912
 C        -9.2591802443       -2.9231519973      -16.4586105036
 C        -9.4100442804       -1.5884079113      -15.7137141885
 C       -10.8176733306       -1.0378471972      -15.7328195472
 O       -11.7657547254       -1.7315861734      -16.0495690830
 C       -10.9994341118        0.5177157945      -15.1304491470
 C       -10.3497695225        0.3567993305      -13.6758289886
 O        -9.1238651567        0.2730592628      -13.5739632482
 C       -11.3245726494        0.4549083072      -12.4991825381
 C       -10.2137082862        1.6435439773      -15.8729826629
 C       -12.5164160648        0.7880747485      -15.2790558051
 C        -7.4711387014       -5.0429335745      -17.5204452623
 C        -8.3213256481       -6.4202779364      -15.6179392792
 C        -2.3109795881       -4.5372274762      -11.3868077875
 C        -1.4051612272       -6.2186554241      -13.3878487884
 C        -1.0853671897      -11.8357196563       -7.6570974867
 C        -2.2585517878       -9.8817568240       -6.4859945067
 C         4.8529167845      -12.6347496206       -6.6119257384
 C         5.1313621745      -11.3629968023       -4.4049271047
 C         6.0544080312       -5.9322224354       -9.2725829968
 C         4.5960756023       -6.1283582646       -7.2945565162
 C         1.3053234472       -1.2619302021      -12.1322239243
 C         2.3563332151        0.8152619363      -11.1380643476
 C        -2.8114980892        3.2294473645       -6.8345664503
 C        -2.7584667786        0.8507045812       -6.3717162331
 C       -10.5836772801        2.6389039887       -5.8101378108
 C        -9.6942369980        1.8538933209       -8.1250976588
 C        -5.1687117633        8.3147299400       -5.7987377249
 C        -6.2528286139        8.7623380554       -7.9304858281
 C        -0.8774249086        7.8199328227      -12.5705262221
 C        -3.1885916004        8.6087016961      -13.0991950783
 C        -6.8059539969        2.8889711131      -14.0531200143
 C        -7.4129926159        3.2504797660      -11.5451130697
 H        -6.4721756467       -0.0113996706      -12.9771100486
 H        -4.7958790982       -0.1088561449      -12.3217030967
 H        -4.9733931402        0.6410137199      -13.9112462693
 H        -4.3602302575        4.0586833272      -14.4261774254
 H        -3.4014648593        3.5285969078      -13.0359127117
 H        -3.8162293722        6.2929498137      -14.0322480559
 H        -2.3758060262        5.3202721076      -13.9138134189
 H        -4.4562588584        7.4718263923      -10.5348574379
 H        -4.3755945085        9.0236947503       -9.6911894662
 H        -3.1929009351        8.2202153398       -7.9412173734
 H        -2.7032102870        6.7854865711       -8.8239225439
 H        -8.3746487922        6.7660810476       -7.7657928959
 H        -8.6703207531        7.3040874989       -6.1015875435
 H        -9.9367616065        5.4180040996       -6.0927992390
 H        -8.4942711034        4.8485369922       -5.3604259730
 H        -7.3837047616        1.1693062434       -7.9626612967
 H        -7.4313026822        0.0454326920       -6.4962629998
 H        -5.0906065550        0.1080414413       -6.6130627977
 H        -5.4755802997        1.3952237177       -5.5455315475
 H        -1.8183236666       -0.4118389737       -8.8185633491
 H        -0.9851638179        0.6340566426       -7.6007338830
 H         0.5571617782        1.3551099011       -9.3042515930
 H        -0.6128161338        1.0262584229      -10.5443227404
 H         1.7010303847       -3.1758104064       -9.9983433095
 H         2.6883395600       -2.9244086745       -8.6061303680
 H         4.6003842048       -3.4983047899       -9.2705331339
 H         3.9465837040       -3.9285309876      -11.1114329926
 H         6.2693418289       -8.3692427223       -7.9631544125
 H         6.0116676045       -9.1717545585       -9.6319253060
 H         5.7539241219      -10.8433559119       -8.3291818931
 H         4.1061284802      -10.5336967043       -8.5457792741
 H         2.5779757323       -9.3143545004       -5.4676056422
 H         2.2866505654      -10.0667662336       -3.9660617632
 H         0.3522241607       -9.0795919631       -4.9645475005
 H         0.0341807558      -10.7763299744       -5.0111644683
 H        -2.9221636741       -8.3344297202       -8.9388821943
 H        -3.3319161507       -9.7647624339       -9.8204846839
 H        -3.0273647004       -8.5373663421      -11.7285337943
 H        -1.5968666542       -9.0858872306      -11.7419689037
 H        -3.4816154180       -5.9521364046      -14.5526739442
 H        -4.0051778302       -4.4227021786      -13.6853428592
 H        -6.3766621096       -6.1920810416      -13.5627692573
 H        -5.4729254524       -6.8417886400      -14.9338176716
 H       -10.2555580677       -3.3094414430      -16.6625829035
 H        -8.7273744330       -2.8676020523      -17.3809399885
 H        -8.5987188686       -0.9035460484      -16.1556941895
 H        -9.1199609501       -1.6352067862      -14.7212770612
 H       -11.9522463076       -0.4528392307      -12.4806483401
 H       -12.0387154004        1.2638391691      -12.7012072837
 H       -10.8922960178        0.5439204890      -11.5385774322
 H        -9.2874326228        1.7176368621      -15.4301029372
 H       -10.8222056023        2.5118338585      -15.7691188849
 H       -10.0880363784        1.3122140696      -16.9077969944
 H       -13.0616562373       -0.1961449262      -15.0859944161
 H       -12.7069106986        0.9468145413      -16.3249414737
 H       -12.9030408292        1.5740324036      -14.6513819625
 H        -8.4769839033       -4.8968256747      -18.0337495767
 H        -6.9563168788       -5.9370521986      -17.7619970887
 H        -6.8863306893       -4.1710035602      -17.8781756718
 H        -8.4792347867       -6.3361957312      -14.5573145767
 H        -7.5643154646       -7.2352240112      -15.7136220848
 H        -9.3110387205       -6.6572639819      -16.1063604779
 H        -2.6666173179       -3.7297300577      -12.0024664013
 H        -1.2982357699       -4.2567813973      -11.0865846859
 H        -2.9667449031       -4.5372015187      -10.5657118682
 H        -0.3585963642       -6.3087218591      -13.1030637418
 H        -1.3836958262       -5.3008417033      -13.9788997620
 H        -1.7787514622       -7.1596685627      -13.7877376688
 H        -2.0354776353      -12.3099097377       -7.4322809825
 H        -0.4284902569      -12.3349854631       -6.9202697108
 H        -0.8106787730      -12.1306551835       -8.6837097178
 H        -3.2012269978      -10.2696226479       -6.8116041554
 H        -2.2641641796       -8.8133780541       -6.2449159074
 H        -2.0271588823      -10.3992022010       -5.5720439664
 H         4.3026449597      -12.8465414478       -7.5406119982
 H         4.6152240219      -13.3763843648       -5.8102089626
 H         5.9760568802      -12.6765562423       -6.8153522297
 H         6.1002079020      -11.6959504431       -4.6099367919
 H         4.6815013306      -12.0896032718       -3.7301612781
 H         5.1528056268      -10.4037748828       -3.9297402083
 H         6.7420786537       -6.7602616439       -9.2167244534
 H         6.4054486412       -5.1070957594       -8.5996509296
 H         6.1746953009       -5.5785235701      -10.2837051770
 H         3.7469087483       -6.5826666479       -6.8452785787
 H         4.7672033727       -5.0557702416       -7.1343405026
 H         5.3690506301       -6.6533380290       -6.9037005979
 H         0.8101793817       -2.1776980832      -11.9150855630
 H         2.2343503266       -1.4260683441      -12.7298174582
 H         0.7250375345       -0.5265085703      -12.6223832516
 H         3.1114861862        0.6303788598      -11.8621606121
 H         2.7738034044        1.3729213166      -10.3814828156
 H         1.5232571024        1.4054104684      -11.6022898084
 H        -3.6778829343        3.4890199438       -6.1920092953
 H        -2.6343686485        4.0089765050       -7.5826331705
 H        -1.9095124242        3.2286723752       -6.1871794572
 H        -3.0988370610        1.2830819657       -5.4183751331
 H        -1.6596537927        0.6956020696       -6.3338070349
 H        -3.1196140202       -0.1967280525       -6.5807091909
 H       -11.4645430960        3.2319633823       -6.0732393208
 H       -10.2752511292        3.1730946572       -4.8690145211
 H       -10.7889406295        1.5934396075       -5.7508510499
 H        -8.8340765652        1.4143625570       -8.6885921154
 H       -10.1651083630        2.3748082604       -8.9281467994
 H       -10.3697260686        1.0026158830       -7.8410174605
 H        -5.8629725080        9.1763589514       -5.5003520041
 H        -4.1943224512        8.7812399534       -5.8619175867
 H        -5.0439016565        7.6711986031       -4.9432587489
 H        -6.7095976259        8.4674064374       -8.8617006945
 H        -5.3757877738        9.4672301856       -8.1102992470
 H        -7.0412366239        9.2483396552       -7.3973275269
 H        -0.5248527439        8.7648633540      -12.3066282374
 H        -0.7309286429        7.5542254431      -13.5638220822
 H        -0.2830794822        7.1532885407      -11.9284498288
 H        -4.2415645853        8.6039584180      -12.7989240310
 H        -3.2630310069        8.3748682290      -14.1260107739
 H        -2.9285059570        9.6658362417      -13.0786447158
 H        -5.9962780395        2.6056529703      -14.6794212114
 H        -7.3342666071        3.7491113981      -14.3308817164
 H        -7.6097808188        2.1929578626      -13.9771916879
 H        -7.7759929460        4.2092490275      -11.8109216746
 H        -7.0548369524        3.3776930491      -10.5605992774
 H        -8.0710350281        2.3835966217      -11.5024960482
 Na       -4.1280313685        4.0207978311       -9.9399339768
 Na        1.3776602212       -7.5201905818       -9.1649761297
