232

 C        -5.2109379865        0.8647790863      -13.2551826402
 C        -5.4907140496        1.9866774526      -12.1822897123
 O        -5.0088200738        1.8683979116      -11.0799290079
 C        -6.3411297644        3.1517935924      -12.4546184792
 C        -5.4407943674        4.3912122356      -12.4989172702
 O        -5.6132452682        5.3531523615      -11.7432567615
 C        -4.2377646313        4.4444584299      -13.4418087771
 C        -3.5843957667        5.8218484408      -13.7221927565
 C        -2.8566778874        6.2891137300      -12.4515134339
 O        -2.7764269392        5.5695094660      -11.4727801326
 C        -2.1997430044        7.6852069390      -12.3291623531
 C        -2.2522216554        8.2167420427      -10.8086667855
 O        -1.2386809450        8.5045220485      -10.2877509191
 C        -3.7234476207        8.1842432393      -10.1490800940
 C        -3.6613918021        7.5309806350       -8.7411826403
 C        -4.9064974077        6.9080632765       -8.2517260763
 O        -5.1521537008        5.7668347223       -8.5982782751
 C        -5.7232144364        7.5754859724       -7.0733139144
 C        -6.6996364913        6.5386626101       -6.4135939833
 O        -6.4133220014        6.0616155097       -5.3248177952
 C        -8.1165441175        6.4130199854       -7.0523749031
 C        -8.8356234865        5.1744037300       -6.5200324335
 C        -8.7262716001        3.8993758860       -7.4391528006
 O        -8.1145326769        3.9209125442       -8.4837814845
 C        -9.1982288272        2.5937510769       -6.8979250410
 C        -7.7375640105        2.0456527527       -6.3337378616
 O        -7.3999873647        2.2647749911       -5.1782164707
 C        -6.9561723759        1.2265251329       -7.3807353874
 C        -5.5299987959        0.8779407169       -6.8446057004
 C        -4.4928034295        1.9353609915       -7.3335610476
 O        -4.8784662874        2.8400475246       -8.0715729708
 C        -2.9070668092        1.9712264039       -7.0317268942
 C        -2.1343046302        1.9243653687       -8.4772505988
 O        -2.2548180880        2.8334354594       -9.2644260962
 C        -1.0683114977        0.7420373712       -8.8466052963
 C        -0.2093888285        0.8428673690      -10.0951247961
 C         0.6218291653       -0.4650855524      -10.2391068772
 O         0.2279381547       -1.4645420158       -9.6349579480
 C         1.8811684087       -0.6140920658      -11.2261182548
 C         2.8639038985       -1.6336146774      -10.6001202692
 O         4.0483314999       -1.3184535384      -10.5033691483
 C         2.4115689675       -3.0664264273      -10.0128246651
 C         3.6674957522       -3.8907870957       -9.6695115358
 C         3.3363490596       -5.2947983107       -9.1636779408
 O         2.1763808833       -5.6488321210       -9.0327527505
 C         4.5421112192       -6.2130610716       -8.5535003076
 C         4.3517808691       -7.8266067641       -8.9104044707
 O         3.3628163380       -8.2854299609       -9.4218690572
 C         5.6143372782       -8.7134115998       -8.5430773831
 C         5.3999671530      -10.0470242026       -8.0187419275
 C         4.7525259797      -10.0198330108       -6.5108137106
 O         4.5323696159       -8.9510751775       -6.0095236382
 C         4.5662462764      -11.3726771017       -5.6614565760
 C         2.9528202476      -11.7635750162       -5.5665714662
 O         2.4167794954      -12.7920895895       -5.9707794838
 C         2.0856817814      -10.6625288649       -4.7604585076
 C         0.6731906539      -10.5534265112       -5.1580353461
 C         0.4280174858       -9.9125508572       -6.6623588111
 O         1.1541595694       -9.0518671219       -7.0559384686
 C        -0.8972567044      -10.3666872602       -7.5687092874
 C        -1.0842835867       -9.4929758162       -8.8739860178
 O        -0.2303233501       -9.6299393653       -9.7529444580
 C        -2.4528819132       -8.8083099091       -9.0429786381
 C        -2.9285737155       -8.3535188786      -10.3859964916
 C        -2.1288832128       -6.9712572911      -10.7659909413
 O        -1.1235018945       -6.7665337656      -10.2035139366
 C        -2.6585456976       -6.0476014428      -11.9490448076
 C        -4.0220660382       -6.4439982363      -12.6513281138
 O        -4.8263915421       -7.0804104689      -11.9522856852
 C        -4.4582479198       -5.6401389628      -13.9665644656
 C        -5.9925755760       -5.6915376624      -14.0662574904
 C        -6.4044857623       -4.7334206016      -15.1900140423
 O        -5.6794767000       -3.8091112492      -15.4784360639
 C        -7.6812986667       -5.0029968550      -16.1255756998
 C        -8.7302108920       -3.9781913366      -15.4760799206
 O        -8.9429516591       -3.9418712289      -14.2742419910
 C        -9.5225804231       -3.0787099669      -16.4584157874
 C        -9.5862173988       -1.6107268641      -16.0940531153
 C       -10.9652061384       -1.0939487686      -15.6380907483
 O       -11.9401950501       -1.8216129543      -15.5984597129
 C       -11.0675826948        0.4111348993      -15.2169559127
 C       -10.4835159149        0.4219823300      -13.7176313637
 O        -9.3422105859        0.7617856118      -13.3789119688
 C       -11.5795763204        0.2204666004      -12.7382048208
 C       -10.2523293731        1.4419021297      -16.0991141959
 C       -12.5351569798        0.8792505602      -15.3721585630
 C        -7.2324519829       -4.6721296082      -17.5259799884
 C        -8.1869330136       -6.4607269979      -16.0151947752
 C        -2.8354414936       -4.7192119829      -11.3013822953
 C        -1.6018003293       -6.1054899040      -13.0939453122
 C        -0.6356648747      -11.7699182956       -8.1652376824
 C        -2.0779675801      -10.4671902340       -6.6603683877
 C         5.1811684512      -12.5896810546       -6.2880615543
 C         5.0480870930      -11.1788307567       -4.2294573029
 C         5.9110819923       -5.8304471292       -9.0788733204
 C         4.5346452560       -5.8473264571       -6.9550456358
 C         1.3737000714       -1.3538418915      -12.5376303246
 C         2.6152952105        0.6447357426      -11.7443217145
 C        -2.6074823594        3.3768947634       -6.3475941421
 C        -2.4735036890        0.8454517838       -6.0132552703
 C       -10.0974316818        2.6837375337       -5.6680063234
 C        -9.8645535037        1.7706889833       -8.0313165895
 C        -4.8159321415        8.1468344715       -5.9008183141
 C        -6.4685076118        8.8695512005       -7.6090403099
 C        -0.7332965710        7.4881573798      -12.8148700821
 C        -2.8301503075        8.7676331925      -13.2335138958
 C        -6.9815827557        3.0265365055      -13.8188414528
 C        -7.4141895391        3.4240782776      -11.3537668256
 H        -6.2015814531        0.3796507953      -13.4201230326
 H        -4.5312747120        0.2183796969      -12.6755879203
 H        -4.7108157094        1.2064824473      -14.1597773980
 H        -4.5291509040        3.9859628018      -14.4668821168
 H        -3.4845518049        3.7311628339      -13.0362172840
 H        -4.4298088785        6.4750829638      -13.9768623880
 H        -3.0102252152        5.6924377381      -14.6149869159
 H        -4.2376504090        7.3995829974      -10.6355695757
 H        -4.2761694134        9.0646750840      -10.2142437494
 H        -3.3765405245        8.2701733184       -7.9947374805
 H        -2.8689573210        6.7646707683       -8.8314328632
 H        -8.0245975427        6.2924441259       -8.1435174109
 H        -8.5852630348        7.3328091600       -6.8769494349
 H        -9.8267874318        5.3659301480       -6.3404864731
 H        -8.5499924760        4.9044846269       -5.4664650911
 H        -6.8990144178        1.6402608067       -8.3892002236
 H        -7.5568801978        0.2893043367       -7.3382189593
 H        -5.1277283484       -0.0319045462       -7.2453431340
 H        -5.4033648536        0.8136630785       -5.7537784204
 H        -1.7067745941       -0.1482187843       -8.9784676349
 H        -0.3796128364        0.6367902882       -7.9826571272
 H         0.3074592977        1.7169484743      -10.0686821166
 H        -0.7981126528        0.8638616788      -10.9308002766
 H         1.7948600276       -3.5324481146      -10.7999762913
 H         1.7015004827       -3.0156408482       -9.2267314809
 H         4.2939029569       -3.4411592449       -8.8464810371
 H         4.2507435504       -4.0361262562      -10.7022105844
 H         6.0910562238       -8.0710625024       -7.7835881379
 H         6.1663818590       -8.6180654834       -9.5098538236
 H         6.3647428881      -10.5091228964       -7.8702774718
 H         4.9110701140      -10.6963360518       -8.7605383636
 H         2.5234179399       -9.7479770133       -4.9255580867
 H         2.1434807590      -10.8409953121       -3.7475229227
 H         0.2753590428       -9.8709331474       -4.5122079286
 H         0.0502992940      -11.5094375203       -5.0530940433
 H        -2.4766356182       -7.9343982881       -8.3901095857
 H        -3.1279829156       -9.5410788619       -8.5600134221
 H        -3.9940365258       -8.2865546311      -10.7032859487
 H        -2.7100058943       -9.0749042538      -11.1331037931
 H        -3.8526842338       -6.0066777243      -14.8075382242
 H        -4.2025142472       -4.5940516027      -13.8433586824
 H        -6.5028579794       -5.2589649280      -13.1521411844
 H        -6.4311870074       -6.6209427290      -14.2776193808
 H       -10.5162889807       -3.4218927618      -16.3397472253
 H        -9.2245303956       -3.3020744400      -17.4159179050
 H        -9.3490477605       -0.9315637415      -16.9788746526
 H        -8.8215762321       -1.3500411698      -15.4562395814
 H       -12.2383207475       -0.5828071241      -13.1191811177
 H       -12.1144339847        1.1536012413      -12.6386042255
 H       -11.2713002832        0.1032832076      -11.7108440592
 H        -9.3057765075        1.0788751073      -16.4176838593
 H       -10.1068430969        2.2800628857      -15.4535943560
 H       -10.8970082991        1.6184806265      -16.9674266303
 H       -13.2227373742        0.4077255066      -14.5674122510
 H       -12.8833547315        0.6732944492      -16.3898972063
 H       -12.7096532571        1.9392723232      -15.2925185747
 H        -8.0920633200       -4.7531319089      -18.1615879387
 H        -6.6421242556       -5.4350483382      -17.9916211177
 H        -6.8026122920       -3.6718270446      -17.5570747337
 H        -8.7566182808       -6.6703389274      -15.1458605557
 H        -7.3232999894       -7.1499953233      -16.0367067122
 H        -8.8506617540       -6.5385900118      -16.8523488941
 H        -2.6775494812       -3.8397116990      -11.9615221012
 H        -2.1598908494       -4.6589528762      -10.4232758117
 H        -3.7913889911       -4.5868280620      -10.8493383973
 H        -0.5947461379       -6.1454063971      -12.7431757030
 H        -1.8337434773       -5.3043126877      -13.7811511615
 H        -1.6915314919       -7.1327210564      -13.4969382027
 H        -1.0541014192      -11.8727879817       -9.1374630437
 H        -0.8494286165      -12.6114332590       -7.4659379180
 H         0.4520076492      -11.9495458302       -8.3377992594
 H        -2.9289294113      -10.9092870991       -7.1751215360
 H        -2.2721919377       -9.4390565959       -6.3207949157
 H        -1.8942068895      -11.1479001061       -5.8405758948
 H         5.0235570006      -12.5879182968       -7.3657252406
 H         4.6018762052      -13.4538671613       -5.9244255246
 H         6.2716974228      -12.6664031135       -6.0976788765
 H         6.0982664294      -10.9187010042       -4.3244589104
 H         4.9463497618      -12.0313969016       -3.5418074960
 H         4.4584916081      -10.3818383799       -3.7755746630
 H         6.6518469225       -6.4906074461       -8.6667962660
 H         6.1589154640       -4.7884641865       -8.9965178939
 H         6.0149125836       -5.9562263484      -10.1149839921
 H         3.5912393969       -6.1696398299       -6.4970069214
 H         4.6202894252       -4.7659952216       -6.8192543532
 H         5.3333727081       -6.3353863404       -6.5084937254
 H         1.1145485922       -2.3257223439      -12.2721308234
 H         2.2620590540       -1.5936648548      -13.1713977097
 H         0.5867038935       -0.7818271071      -12.9315004706
 H         3.6091122840        0.5484694077      -12.0301005692
 H         2.5650319247        1.3727626422      -10.9639182552
 H         1.9220788913        1.1850342603      -12.4994745120
 H        -2.8292185238        3.3947323393       -5.2789800604
 H        -3.2564345678        4.1079522431       -6.7772492994
 H        -1.5615209028        3.6926961333       -6.5002719814
 H        -2.6436765659        1.0756288322       -4.9470604237
 H        -1.3900571336        0.6342678857       -6.1865644845
 H        -3.1376529695        0.0339032694       -6.2792458352
 H       -10.9616088778        3.3542421409       -5.8760806528
 H        -9.4474711012        3.1369018784       -4.8462453427
 H       -10.5248318573        1.7057870236       -5.3425687983
 H        -9.6089875835        2.0612632418       -9.0674214265
 H       -10.8993073408        1.8665024266       -7.9085045008
 H        -9.6810341638        0.6990160918       -8.0626766110
 H        -5.3541501724        8.0882491703       -4.9471212993
 H        -4.5499060396        9.1517512537       -6.0769565567
 H        -3.8980041184        7.6805281590       -5.6491420289
 H        -7.3605661329        8.6910970034       -8.1495619879
 H        -5.8489318192        9.5265519743       -8.2267359449
 H        -6.8033238610        9.3389421621       -6.7429694883
 H        -0.0799151403        7.1549541045      -12.0251959686
 H        -0.3244330128        8.4810459879      -13.0759978979
 H        -0.7412997639        6.8255121906      -13.7384418420
 H        -3.8652997811        9.0107922181      -13.1894170356
 H        -2.6823437882        8.4942237686      -14.2854733748
 H        -2.3482955645        9.7172471401      -13.1743600343
 H        -6.2493694358        2.6375617852      -14.5606015994
 H        -7.4608156413        3.9717096445      -14.1365465784
 H        -7.7512459878        2.2404149962      -13.6715589061
 H        -7.8020748008        4.4235080409      -11.4451286541
 H        -6.8099594425        3.3895310535      -10.3698716925
 H        -8.2884651241        2.7501980557      -11.3796891390
 Na       -4.2114728033        4.1727454400       -9.8473228824
 Na        1.0635606426       -7.6064590083       -9.1446999240
