232

 C        -5.4702693326        0.9314207213      -12.8859167813
 C        -5.3559243588        2.3085126707      -12.1553948948
 O        -4.3852487741        2.5544379042      -11.4811485162
 C        -6.4815674735        3.3356831857      -12.5998967491
 C        -5.7440465112        4.7133269609      -12.7485718836
 O        -5.8649392279        5.6649203898      -11.9913268940
 C        -4.7233688549        4.8268207232      -13.8390269529
 C        -3.7889098208        6.0509726431      -13.8130195918
 C        -2.8443016882        6.1407485598      -12.6377215283
 O        -2.7344918359        5.2595832875      -11.8405683850
 C        -2.0785230605        7.5538479218      -12.4021452529
 C        -2.1226868091        7.8062716634      -10.8350796233
 O        -1.1888501502        7.9475525039      -10.1044938184
 C        -3.5354324668        7.9799260453      -10.2790340930
 C        -3.5290704700        7.6465470181       -8.7134954440
 C        -4.8311678172        7.1168683029       -8.3028448151
 O        -5.3799482894        6.1836402435       -8.9071562999
 C        -5.5620976382        7.8066017810       -7.1354704193
 C        -6.6386085900        6.7728886032       -6.5148736297
 O        -6.5370243920        6.4523035561       -5.3710249060
 C        -7.8005429728        6.2754718912       -7.3938584820
 C        -8.5800530900        5.1112996869       -6.6284920887
 C        -8.4338212228        3.8287603124       -7.4484452537
 O        -8.3733485331        3.9135484711       -8.6523448471
 C        -8.6523415323        2.4142434894       -6.6665523331
 C        -7.3066164674        1.7478310733       -6.4239166026
 O        -6.8630424537        1.6597636017       -5.3243176789
 C        -6.4497078686        1.1231093232       -7.6359736519
 C        -5.0254912629        0.9377182842       -7.1594915803
 C        -4.1795811957        2.1053461109       -7.6497051318
 O        -4.5783286386        3.0335632436       -8.3206577293
 C        -2.6466803529        2.0377146869       -7.1481952490
 C        -1.7427904757        2.0935885709       -8.3896613979
 O        -1.7362251687        2.9997519961       -9.1677263865
 C        -0.8070766733        0.8508945347       -8.5160375391
 C        -0.0826175925        0.8668625541       -9.7863375828
 C         0.3502413793       -0.5376900812      -10.2147305698
 O        -0.2120926228       -1.5617338798       -9.8299286667
 C         1.5198527968       -0.7718783068      -11.2646915662
 C         2.5584069138       -1.7632171533      -10.7694641869
 O         3.7550711390       -1.4729425152      -10.7283338980
 C         2.2525336180       -3.2115027502      -10.3797567425
 C         3.4601423799       -3.8017982192       -9.6145427488
 C         3.2200977186       -5.2085832524       -9.0758935873
 O         2.1559137417       -5.7387850506       -8.9235117398
 C         4.4784120843       -5.9455527467       -8.3747358339
 C         4.1319790011       -7.6366567595       -8.4868390053
 O         3.0541151419       -8.1091611752       -8.8605710590
 C         5.3069518022       -8.5918304580       -8.4049673391
 C         4.9423890583       -9.9828587209       -7.9698370944
 C         4.6260647681       -9.9390945067       -6.3986830381
 O         4.2690855505       -8.8816227719       -5.9228987482
 C         4.6540465200      -11.1896497927       -5.6661046545
 C         3.0734940688      -11.6723207055       -5.6930733558
 O         2.6659365772      -12.5741473604       -6.3655442562
 C         2.1701293956      -10.6363285617       -4.9682401481
 C         0.6831115644      -10.9012012853       -5.2714728575
 C         0.1858568174      -10.1358904359       -6.5907012969
 O         0.5474540357       -8.9791315647       -6.7301920507
 C        -0.7402604620      -10.8266486046       -7.6056723761
 C        -1.1930079903       -9.7017013475       -8.7155960388
 O        -0.4648643437       -9.7405699209       -9.7264724356
 C        -2.3142991535       -8.7817226838       -8.4598032603
 C        -2.9290593755       -8.1449930281       -9.7224407947
 C        -2.0755009277       -7.1201847531      -10.6105620354
 O        -0.9960541757       -6.8263248030      -10.3313851294
 C        -2.7920959084       -6.0910286524      -11.6615860575
 C        -4.2219602627       -6.4903213674      -12.2464090673
 O        -4.8219145814       -7.4064810298      -11.7305266909
 C        -4.6348910269       -5.8429415452      -13.6077343130
 C        -6.1676445124       -5.6016834067      -13.9566038919
 C        -6.3142846340       -4.7947131112      -15.2729900437
 O        -5.4246386500       -4.0329221426      -15.5867569751
 C        -7.5714319704       -4.8624022911      -16.1752496614
 C        -8.7530946450       -3.9552987278      -15.4861833966
 O        -8.7572079890       -4.0359198946      -14.2725787636
 C        -9.7887386821       -3.3166273630      -16.4094395926
 C        -9.9257736930       -1.8221858940      -16.2482410133
 C       -11.1958868227       -1.2426125910      -15.5832715898
 O       -12.1438418734       -1.9265729424      -15.3104316100
 C       -11.0713264970        0.3733687673      -15.2879131374
 C       -10.7407095516        0.6598526125      -13.7774813783
 O        -9.7735836848        1.3069981393      -13.3696729292
 C       -11.5615827326       -0.1300408995      -12.8135649316
 C       -10.0986123177        1.1431863787      -16.2173552855
 C       -12.4954301990        1.0461642159      -15.4869238065
 C        -7.2281114998       -4.4096605598      -17.7048258540
 C        -8.1578266380       -6.2942974634      -16.3313192096
 C        -3.0772348626       -4.6664819804      -11.0142915674
 C        -1.6895482361       -6.1348315538      -12.8096746500
 C        -0.1781971774      -11.9709663220       -8.4447150838
 C        -1.9543544672      -11.3806538334       -6.7386032185
 C         5.6156963796      -12.3123566612       -6.3484159661
 C         5.0534099258      -10.9822695965       -4.1559283932
 C         5.9101193819       -5.5986087595       -8.8632373549
 C         4.3939376631       -5.7207432075       -6.8534505327
 C         0.7184582690       -1.3308796446      -12.4696835453
 C         2.1870690454        0.5950614455      -11.6418608838
 C        -2.3158394900        3.3268532258       -6.2962827863
 C        -2.4756556467        0.6863889866       -6.2924437069
 C        -9.4033425289        2.5251514938       -5.2502442876
 C        -9.4429873664        1.5629630836       -7.6558884764
 C        -4.6563324798        8.1291210857       -5.9433623783
 C        -6.2441610498        9.1126595479       -7.4784004230
 C        -0.5620954544        7.3375233803      -12.8021419740
 C        -2.7774510394        8.6871035215      -13.2015131264
 C        -7.2786866914        2.9956001705      -13.9700945556
 C        -7.3412679043        3.3715537440      -11.3206034627
 H        -6.5437235717        0.7839533295      -12.9936218212
 H        -5.0373394283        0.2216557114      -12.2095828018
 H        -4.9818929512        1.0300983045      -13.8383063924
 H        -5.3162625235        4.7211088668      -14.8080202561
 H        -4.0967959030        3.9448538710      -13.8147120784
 H        -4.3960233333        6.9669403075      -13.9181121717
 H        -3.2365953600        5.9705812589      -14.7432790518
 H        -4.1943815341        7.2660118260      -10.7619616727
 H        -4.0111671653        8.9319020246      -10.4916047853
 H        -3.3217398607        8.6446071882       -8.2800070881
 H        -2.7571903375        6.9053205073       -8.3710422156
 H        -7.3086690962        5.9078806838       -8.3172462333
 H        -8.4352635457        7.0679532259       -7.6688854180
 H        -9.5747728871        5.3043380521       -6.5714826345
 H        -8.3909602517        5.0592405596       -5.5103838807
 H        -6.6146799008        1.8787335575       -8.4027130165
 H        -6.8841996255        0.1650895862       -8.0169847975
 H        -4.5455206350        0.0401701221       -7.5301591823
 H        -5.0451244607        0.9428663538       -6.0346352360
 H        -1.3827439662       -0.0712217222       -8.5049626463
 H        -0.0263629987        0.7462231287       -7.7471725547
 H         0.7641283667        1.3969932354       -9.7131479843
 H        -0.6413295472        1.2654912916      -10.5448138977
 H         2.2012402165       -3.7123540301      -11.4169207964
 H         1.2647696094       -3.2979966486      -10.0397589142
 H         3.7504711273       -3.2034136387       -8.6837898791
 H         4.4970301692       -3.8175352312      -10.2127022503
 H         6.0144374037       -7.9945287051       -7.8021714906
 H         5.7482610068       -8.6764237144       -9.4185404952
 H         5.6504153079      -10.6794792193       -8.4014270984
 H         3.9705161292      -10.2818109150       -8.3574774596
 H         2.4284392664       -9.6466186659       -5.2140528098
 H         2.2890837748      -10.7368297568       -3.9473231817
 H         0.1307092154      -10.5336461831       -4.3944690025
 H         0.3951795696      -11.9750754564       -5.2462120681
 H        -1.9431201414       -8.0394778975       -7.7003007413
 H        -3.1646821621       -9.2977913089       -7.9433709116
 H        -3.7688025859       -7.5452982406       -9.3667321675
 H        -3.4886169522       -8.7570588164      -10.3422048781
 H        -4.3791531804       -6.6128629856      -14.2815244225
 H        -4.0152293627       -5.0482765203      -13.8643954038
 H        -6.6007749063       -4.9649529968      -13.1552953571
 H        -6.6891695547       -6.4835673516      -13.9808757245
 H       -10.7159389800       -3.8509894989      -16.0994244385
 H        -9.6241875283       -3.5934369018      -17.3962997845
 H        -9.8596109378       -1.3480009474      -17.2809015776
 H        -9.0733123709       -1.3917631397      -15.8005630099
 H       -11.6131391444       -1.1461391448      -13.2642140821
 H       -12.5691567629        0.2624838169      -12.6232946140
 H       -11.1022053000       -0.1207857731      -11.7714278444
 H        -9.0385649619        0.8493111072      -15.9878630159
 H       -10.2578788795        2.2154860018      -16.0101247238
 H       -10.4393339806        0.9925636295      -17.2684237422
 H       -13.3790967943        0.4474232902      -15.1882366366
 H       -12.6828623056        1.4214055938      -16.5371014070
 H       -12.6090797731        1.9360962749      -14.8754028455
 H        -7.8786990024       -4.7540800593      -18.4332701050
 H        -6.2288564840       -4.8041911521      -18.0368691273
 H        -7.0213617593       -3.3508002628      -17.6679318345
 H        -8.2090391848       -6.7256507255      -15.3451943226
 H        -7.3971644093       -6.8443593445      -16.9446522089
 H        -9.1034599621       -6.3439563713      -16.8037520281
 H        -3.9013651764       -4.0954293642      -11.5199560985
 H        -2.1918752799       -4.0135875152      -11.1673215056
 H        -3.2532382338       -4.6321144463       -9.9559159447
 H        -0.7869280665       -5.6816440966      -12.4570882296
 H        -2.1478244318       -5.8063668820      -13.7206158268
 H        -1.4755591770       -7.2180708274      -13.0535316732
 H        -0.9301549023      -12.6731150535       -8.6946163587
 H         0.6977742675      -12.4811636215       -7.9980157195
 H         0.2639670848      -11.7110982032       -9.4132183967
 H        -2.8106757923      -11.4475747612       -7.4631966148
 H        -2.1957683118      -10.6564527011       -5.9529198825
 H        -1.6859331832      -12.3853839959       -6.4247326949
 H         4.9772653760      -12.8684348221       -6.9893289900
 H         5.9039994012      -12.9900154952       -5.5930796310
 H         6.4570560760      -11.9819154642       -6.8755823953
 H         6.1731913021      -10.8699780715       -4.0009562297
 H         4.7265607096      -11.8243382226       -3.4974953278
 H         4.6648528997      -10.0168424343       -3.7506418174
 H         6.6659915917       -6.3822653521       -8.5988018628
 H         6.3603934985       -4.7613949219       -8.2767583908
 H         6.0495421707       -5.3158285542       -9.8919763395
 H         3.3650726622       -6.0422435155       -6.5632225315
 H         4.4303100389       -4.7262926695       -6.4679923690
 H         5.2393484492       -6.2302664766       -6.3421664021
 H        -0.0848016717       -2.0378784540      -12.1594516623
 H         1.4639338775       -1.9322096653      -13.1309799241
 H         0.2321971986       -0.4857185075      -13.0450501184
 H         3.2083846344        0.7829328412      -11.3224091428
 H         1.4775360961        1.4680627416      -11.5030752457
 H         2.3337445339        0.5405302845      -12.7525011607
 H        -3.1388782922        3.6445360215       -5.6895142893
 H        -1.9742226225        4.1640872317       -6.8426871336
 H        -1.5573778312        3.0307349189       -5.5457080181
 H        -3.4271567686        0.4870153980       -5.8459568924
 H        -1.8718397150        0.9755427344       -5.4632077571
 H        -2.2261811506       -0.1111963192       -6.8667102109
 H       -10.4230594606        2.7495628984       -5.3993403233
 H        -8.9078374095        3.0499339718       -4.4977404156
 H        -9.2864226480        1.5536726327       -4.7897730588
 H        -8.9396113816        1.2839157502       -8.6001933746
 H       -10.3630113632        2.0102968502       -7.9081539529
 H        -9.6445002090        0.5848809146       -7.3011080836
 H        -4.7765014634        9.0616147691       -5.4393557737
 H        -3.6305751854        8.1071183444       -6.2842678060
 H        -4.6678079085        7.3740881967       -5.1460865323
 H        -6.8186359766        9.1015804500       -8.4279765044
 H        -5.5612190094        9.9324782676       -7.5573684836
 H        -6.8699512867        9.3899999672       -6.6348069248
 H        -0.3762673302        7.0334336192      -13.8386878180
 H        -0.1911297432        6.4730251751      -12.1520718868
 H        -0.1093587427        8.3378305325      -12.6044016919
 H        -3.8394672309        8.6197020137      -13.2161226198
 H        -2.4971702208        8.6669366181      -14.3079648064
 H        -2.5816510714        9.7122965729      -12.9467341971
 H        -6.7459738312        2.9709123735      -14.9131236287
 H        -7.9851568895        3.8371360893      -14.1165239419
 H        -7.7249006696        2.0085064617      -13.8427722448
 H        -8.2459675423        3.9669794885      -11.5324889913
 H        -6.5981691646        3.8000598084      -10.5685288811
 H        -7.8986138669        2.4448555413      -11.0818742292
 Na       -4.1122790537        4.5215169817       -9.9626412779
 Na        0.6005773875       -7.7391103383       -9.0696338852
