232

 C        -5.5205215909        0.8673474409      -12.7760316922
 C        -5.3059355457        2.3471957576      -12.3964354875
 O        -4.3825292735        2.6761029527      -11.6358562077
 C        -6.4342975505        3.4044102254      -12.6300751805
 C        -5.6833156969        4.8097478520      -12.8039620192
 O        -6.0145504034        5.5709563880      -11.9199598246
 C        -4.7343095253        4.9232745148      -14.0626845083
 C        -3.7824041316        6.0886988868      -13.9590950653
 C        -2.8113951992        6.1678048464      -12.6911779590
 O        -2.7373053136        5.2187869172      -11.9930788558
 C        -2.0249700607        7.4931648594      -12.4505036504
 C        -2.0723072268        7.8323040045      -10.9367282990
 O        -1.0077787918        7.7750401860      -10.2579147372
 C        -3.5412463457        7.9940140491      -10.3070811194
 C        -3.5092778866        7.7442831503       -8.8261312814
 C        -4.8470673452        7.2238553656       -8.2848514898
 O        -5.2725201851        6.1518657433       -8.7444388874
 C        -5.5984745155        7.8482259826       -7.0532506408
 C        -6.6908726067        6.8027958302       -6.4754793543
 O        -6.6111008116        6.4555538155       -5.3191917633
 C        -7.8182472758        6.2484385485       -7.4105686813
 C        -8.5157670483        5.1435280295       -6.6641245911
 C        -8.4934851705        3.7620178627       -7.3613411913
 O        -8.3840067576        3.7347318282       -8.5819082526
 C        -8.6259209785        2.3400904151       -6.6501260544
 C        -7.2447450373        1.6830970631       -6.4370575379
 O        -6.7260556116        1.5887647466       -5.3404278684
 C        -6.4912180833        1.1901934890       -7.7213631946
 C        -4.9716913715        0.9427531598       -7.3285680823
 C        -4.1262576064        2.1232505025       -7.6600939521
 O        -4.5453614486        3.0449214186       -8.3039657735
 C        -2.6254667348        2.1023825032       -7.0148492824
 C        -1.6834779327        2.0405820001       -8.3516936244
 O        -1.6946276728        3.0235872644       -9.1081357854
 C        -0.7162067850        0.8897453919       -8.4744831147
 C         0.1184555046        0.8768292757       -9.7029122646
 C         0.4116011258       -0.6034384769      -10.2737355719
 O        -0.2221116154       -1.5538075203       -9.8464460724
 C         1.4202760349       -0.8240747401      -11.4426858560
 C         2.6457757892       -1.7742315522      -10.8367967872
 O         3.7445368041       -1.3478606359      -10.7540490934
 C         2.2170445344       -3.2528070731      -10.3558835403
 C         3.3842138149       -3.8384399690       -9.6260766889
 C         3.1534050251       -5.2518841697       -8.9613410243
 O         2.0152746331       -5.5859229792       -8.9323038890
 C         4.2988476738       -6.0868795590       -8.3231494033
 C         4.0442523587       -7.6006255919       -8.5708665592
 O         2.9235891000       -8.0713144852       -8.8167671513
 C         5.2814740654       -8.5203450417       -8.5309181189
 C         5.0689157835       -9.9512306482       -7.9730489844
 C         4.7207029881       -9.9162106293       -6.4741280468
 O         4.4172928645       -8.8647403424       -5.9540813501
 C         4.6025590176      -11.1913079165       -5.6388692882
 C         3.1224140196      -11.4670720441       -5.7147161744
 O         2.7433504036      -12.3515261064       -6.4343109506
 C         2.0554960746      -10.6899374669       -4.8787221248
 C         0.6107500226      -10.9970474931       -5.2841061221
 C         0.1936881697      -10.2105481450       -6.6143929614
 O         0.5182656421       -9.0076595649       -6.6425913569
 C        -0.7694789972      -10.9651557192       -7.6804937881
 C        -1.1595519570       -9.7919577973       -8.6890654652
 O        -0.4656893924       -9.7184892560       -9.6574086885
 C        -2.2850904542       -8.7565949814       -8.4190099547
 C        -3.0351571172       -7.9921708789       -9.5977000385
 C        -2.2775043618       -6.9653937507      -10.4330938880
 O        -1.0191983708       -6.8943599564      -10.3512346815
 C        -2.8658701512       -6.1661409232      -11.6547231649
 C        -4.2763678615       -6.6168356345      -12.3119242491
 O        -4.9191932167       -7.3899315216      -11.6857759284
 C        -4.6640853382       -5.8209702704      -13.5795000852
 C        -6.1645098973       -5.6213787453      -13.9021189978
 C        -6.2454860181       -4.8204577159      -15.2753299924
 O        -5.3442490570       -4.0612427347      -15.6171098127
 C        -7.5387161589       -4.9479861207      -16.0887128657
 C        -8.6753626649       -4.1156290281      -15.3886975021
 O        -8.6628763828       -3.9399813111      -14.1987559084
 C        -9.7803204740       -3.4582927152      -16.2534595562
 C        -9.8350720108       -1.8526804539      -16.2935153556
 C       -11.0605798655       -1.1724482967      -15.5651293908
 O       -12.0462303272       -1.8084529548      -15.2744527439
 C       -11.0876339715        0.3863059201      -15.3467307619
 C       -10.7270459545        0.4671364795      -13.8098132755
 O        -9.9561020326        1.3219672684      -13.4917317935
 C       -11.6502439965       -0.2595484683      -12.7901498673
 C       -10.1110440608        1.1327422453      -16.2211972263
 C       -12.5174180314        0.9263516558      -15.4899155644
 C        -7.2396220460       -4.2626721148      -17.4690154013
 C        -8.2282048377       -6.3638005952      -16.4291328686
 C        -3.0242760705       -4.7566856623      -11.0357507778
 C        -1.8031041601       -6.0287503733      -12.7606987415
 C        -0.1557316127      -12.0930264666       -8.4922759979
 C        -1.9975261296      -11.6782967225       -6.8998857885
 C         5.5048805392      -12.3522799963       -6.2740985906
 C         5.0191781515      -10.9147814696       -4.1553139043
 C         5.6921570668       -5.5854898997       -8.8383922330
 C         4.2150840835       -5.6046617650       -6.8105025457
 C         0.6477715653       -1.4882542166      -12.5448237707
 C         2.0982383907        0.5585430803      -11.8287780140
 C        -2.2898489563        3.3745946698       -6.3188374320
 C        -2.4275020718        0.8931541707       -6.1515086588
 C        -9.1746630535        2.4915596981       -5.2745143465
 C        -9.6763312840        1.5795897134       -7.5983982210
 C        -4.5121077138        8.1114400950       -5.8931297705
 C        -6.3322341370        9.1157930098       -7.5155861344
 C        -0.5039325590        7.2693609589      -12.8124203640
 C        -2.6357274989        8.7280043948      -13.0881232062
 C        -7.2198905297        3.0325019247      -13.8473770245
 C        -7.3088962766        3.4909382597      -11.4054446847
 H        -6.5380305209        0.7389947063      -12.3948207598
 H        -4.8501791421        0.2842354162      -12.1424290449
 H        -5.4767615943        0.7392497895      -13.8843614272
 H        -5.3692621236        4.8474723766      -14.9699391777
 H        -4.1140228721        3.9644329673      -14.0468740124
 H        -4.3880228106        6.9912937423      -13.9735526138
 H        -3.2693533617        6.1026231903      -14.9266384481
 H        -4.1554490839        7.3023846059      -10.7418019813
 H        -3.9882006386        8.9286299175      -10.5010508576
 H        -3.1031251737        8.7069779866       -8.4414692532
 H        -2.8108026894        6.9304351171       -8.5832437195
 H        -7.4846841335        5.9480499819       -8.3854349492
 H        -8.4850616803        7.0848432247       -7.5175502319
 H        -9.5179995587        5.4271022553       -6.3814835787
 H        -8.1057172702        5.0669812437       -5.6552389798
 H        -6.8136145708        1.8991510970       -8.4454239362
 H        -7.0123840238        0.2286613309       -8.0172418077
 H        -4.4887029042        0.0580425843       -7.7498253677
 H        -4.9446373052        0.8826173843       -6.2392757755
 H        -1.4015575779       -0.0049260708       -8.4234948638
 H        -0.0186588869        0.7635366948       -7.6770836449
 H         1.0234294885        1.4785991540       -9.6063992422
 H        -0.3969033879        1.2778915068      -10.5163087468
 H         1.9407897992       -3.8541399636      -11.2258989722
 H         1.3030708418       -3.1087238449       -9.8301947703
 H         3.7314509959       -3.1061511561       -8.7406092869
 H         4.2797922616       -3.9069390446      -10.2069733033
 H         5.9079802836       -7.8234547955       -7.9446441413
 H         5.7670157021       -8.6043804148       -9.5278676222
 H         6.0385856619      -10.4628505038       -8.0844396784
 H         4.3546813002      -10.5618721918       -8.5167464152
 H         2.2767078813       -9.6574200697       -4.9627223652
 H         2.1617935245      -10.9701598294       -3.8717778676
 H        -0.0915253615      -10.8999140051       -4.4943412198
 H         0.5730537329      -11.9641061515       -5.4526992152
 H        -1.6795440085       -8.0123241399       -7.8368498643
 H        -3.0531366427       -9.0467215841       -7.7429014566
 H        -4.0018411779       -7.5844647106       -9.1279740170
 H        -3.5237329786       -8.5708386561      -10.5375870381
 H        -4.2094086118       -6.2741733096      -14.4553822746
 H        -4.1878659706       -4.8689273248      -13.4874847500
 H        -6.4892954066       -5.0666969821      -13.0036936435
 H        -6.7627719390       -6.5688139920      -13.9859752753
 H       -10.6722732933       -3.8239282350      -15.8999569147
 H        -9.7069495692       -3.8005759878      -17.2514028849
 H        -9.9712911833       -1.6161001157      -17.3084131293
 H        -8.8636060480       -1.3279860636      -16.0264702265
 H       -11.6761750583       -1.3195472262      -13.0154601599
 H       -12.6834238569        0.1294005179      -12.8989812002
 H       -11.3689101888       -0.0259165858      -11.7273857407
 H        -9.2169122319        0.4593310397      -16.3167288262
 H        -9.7973713178        2.0655221622      -15.7660043338
 H       -10.5860423686        1.3716250661      -17.1365489111
 H       -13.2757125621        0.3072973857      -15.0840222793
 H       -12.8159348003        1.1004586271      -16.5837636979
 H       -12.6773332772        1.9380966294      -14.9828710428
 H        -8.0065876351       -4.3984489007      -18.2091689398
 H        -6.2648153710       -4.5941854382      -17.9178614940
 H        -7.0334691323       -3.2424894599      -17.2626893314
 H        -8.4982923368       -6.8402984527      -15.4644792263
 H        -7.5341161709       -6.9374395610      -17.0119073907
 H        -9.0890221396       -6.2618229826      -17.0364352178
 H        -3.7385336609       -4.0865948888      -11.5701591621
 H        -2.0911018131       -4.1931778814      -11.0563118198
 H        -3.3663494161       -4.7526906238       -9.9626383458
 H        -1.0960212984       -5.3178193441      -12.3824147347
 H        -2.3325920070       -5.6830558009      -13.6285759009
 H        -1.3499757105       -6.9620307292      -13.1280685659
 H        -0.9643843078      -12.8031370481       -8.8148272132
 H         0.5789298617      -12.6636264590       -7.9344580910
 H         0.3871324626      -11.8665772915       -9.4080851482
 H        -2.7570933687      -11.9064515933       -7.6659175744
 H        -2.3623485476      -11.0484881190       -6.1272679453
 H        -1.5550923958      -12.6053332257       -6.5318762750
 H         5.0295950638      -12.6899857558       -7.2099002555
 H         5.6287216143      -13.1855323151       -5.5939300326
 H         6.5028348777      -12.0067519518       -6.4577267022
 H         6.1203048223      -10.7755734942       -4.0942641734
 H         4.7946162093      -11.7245862320       -3.4696348323
 H         4.6336493930       -9.9572271505       -3.7683033979
 H         6.5310081413       -6.1632352599       -8.4712324609
 H         5.9825030640       -4.6482465613       -8.4406459471
 H         5.7764963409       -5.5630163476       -9.9173219502
 H         3.3162487997       -5.6219111738       -6.2837225237
 H         4.4310308210       -4.5909042971       -6.8583635857
 H         5.1439659352       -5.9230147275       -6.2854572786
 H         0.3436405230       -2.5512631685      -12.3633220157
 H         1.3196016214       -1.4345138719      -13.3625844915
 H        -0.2816578835       -0.9111009678      -12.8201663396
 H         2.7488778382        0.9542627755      -11.0173665505
 H         1.3621245700        1.3070921739      -12.1879332260
 H         2.8085858525        0.3670935799      -12.5264782983
 H        -2.9477640498        3.5961229539       -5.5069736112
 H        -2.2316484675        4.2343146010       -6.9727990205
 H        -1.3380630357        3.2509001132       -5.8190236302
 H        -2.9851070434        1.0074345355       -5.2072636997
 H        -1.3712446970        0.9233249504       -5.9277704982
 H        -2.7631458011        0.0895136901       -6.8205311361
 H       -10.2401871292        2.7614270336       -5.3298189607
 H        -8.5908080937        3.1277273641       -4.6548144122
 H        -8.9821226416        1.5847990998       -4.6692670395
 H        -9.4408531286        1.5965140045       -8.6383021058
 H       -10.7130568483        1.9393585184       -7.5299151863
 H        -9.6883933029        0.5405839448       -7.4589306666
 H        -4.6462496491        9.0245835417       -5.4169690127
 H        -3.4817784722        8.1136654509       -6.2761336550
 H        -4.5111459240        7.3488369766       -5.0998169274
 H        -6.9495196149        8.8146224473       -8.3494267987
 H        -5.6910337739        9.8265965121       -7.8888287664
 H        -6.8812061537        9.6705349677       -6.7735002465
 H        -0.3050956031        7.7267885713      -13.8335219313
 H        -0.2883129056        6.1586927884      -12.9225047276
 H         0.0838427968        7.8543070881      -12.1201544187
 H        -3.6787194542        8.7170760928      -12.8479242044
 H        -2.6121759171        8.8667020457      -14.1790627223
 H        -2.2986872999        9.6559860139      -12.6914802874
 H        -6.6490766226        2.8483424172      -14.7700873006
 H        -7.8950062073        3.8565758018      -14.1391455627
 H        -7.6865754811        2.0845862652      -13.6133114762
 H        -8.1828274765        4.1556130339      -11.6801549009
 H        -6.6798595420        3.8202603775      -10.6631807452
 H        -7.9049407672        2.5885069682      -11.1908367937
 Na       -4.0319373424        4.5989376143       -9.8842732360
 Na        0.6273397840       -7.7188755767       -8.9566223532
