232

 C        -5.5320278382        0.8608676293      -12.6306790920
 C        -5.3096667681        2.3347516386      -12.3014736279
 O        -4.2796031745        2.7217671829      -11.7334975843
 C        -6.4617924339        3.3983935943      -12.6533704114
 C        -5.6647872475        4.8433375552      -12.8286774175
 O        -5.8033879892        5.7507362590      -12.0625953859
 C        -4.7546181515        5.0605384830      -14.0217739172
 C        -3.7775644423        6.2357417350      -14.0050243189
 C        -2.8775177044        6.2298333130      -12.8208266806
 O        -2.7644295282        5.2104602421      -12.0827693762
 C        -2.0446594950        7.4548658127      -12.5071270163
 C        -2.0269006005        7.5751173128      -10.9541422307
 O        -1.0619427398        7.7048073165      -10.2673056002
 C        -3.3713464190        7.9445584394      -10.3261263594
 C        -3.4956579023        7.9024493794       -8.7842626632
 C        -4.7696269907        7.1724469899       -8.1741515106
 O        -5.1757698704        6.1256788673       -8.6275526330
 C        -5.5633730900        7.8279602095       -7.0592495664
 C        -6.6832327498        6.8521207918       -6.4357736325
 O        -6.6300144741        6.4803501855       -5.2733757671
 C        -7.8337303585        6.2239482341       -7.2580007190
 C        -8.5087483942        5.0169508086       -6.6377159553
 C        -8.5000160970        3.6829678771       -7.4041317391
 O        -8.2991109099        3.6205046110       -8.6092975274
 C        -8.6901033483        2.3795834957       -6.5517777026
 C        -7.2432880345        1.7131206210       -6.5697896869
 O        -6.6797999658        1.5470250683       -5.4924551799
 C        -6.4968326024        1.2218734782       -7.8083723790
 C        -5.0403908393        0.8644485992       -7.4716742571
 C        -4.1125078811        2.1432876637       -7.5884740229
 O        -4.4424235745        3.0973360453       -8.2779275839
 C        -2.5786787947        2.1045842169       -6.9954526967
 C        -1.6134367816        2.0714672399       -8.3141608054
 O        -1.6999399283        2.9936771652       -9.1240072652
 C        -0.6771435459        0.8771909424       -8.4606473320
 C         0.2834200373        0.8268075286       -9.7134180601
 C         0.4252461576       -0.6200735990      -10.2887056134
 O        -0.2506813267       -1.4707466624       -9.7825396720
 C         1.4474162097       -0.8561747668      -11.5141205388
 C         2.5438777052       -1.7556438185      -10.8906215756
 O         3.6559288414       -1.2818569972      -10.7826118541
 C         2.3159804722       -3.1495171592      -10.3482831935
 C         3.4228473533       -3.8280455771       -9.6638964429
 C         2.9173045633       -5.2057705728       -8.9617533178
 O         1.7161639303       -5.5299454588       -8.9441607585
 C         4.0970295817       -5.9947129038       -8.3141475021
 C         3.9643872781       -7.5508117829       -8.4732803953
 O         2.9442744436       -8.0860661461       -8.7495704397
 C         5.3559966773       -8.4574107953       -8.5912876623
 C         5.1720818082       -9.8738482424       -8.0058352331
 C         4.8380460444       -9.7487251281       -6.5122854383
 O         4.5501545745       -8.6689742438       -5.9985016177
 C         4.6381460162      -11.1569238862       -5.6122937479
 C         3.0893253046      -11.4935167215       -5.7250986004
 O         2.6640627493      -12.2317865079       -6.6178327468
 C         1.9682395641      -10.8018727811       -4.8464587566
 C         0.6066294627      -11.0956876559       -5.4223215357
 C         0.1188302843      -10.3444039109       -6.6353483521
 O         0.4221170159       -9.1780773217       -6.8148132495
 C        -0.8617841943      -11.0654259461       -7.7031450758
 C        -1.2058233550       -9.8214539830       -8.7788154983
 O        -0.4925196253       -9.5728395948       -9.6924959943
 C        -2.2766077557       -8.6096326698       -8.3254925543
 C        -3.0726584933       -8.0250800993       -9.4997813484
 C        -2.2708024333       -7.1223129015      -10.5034903886
 O        -1.0327018747       -6.9014500435      -10.2528587383
 C        -2.8877153661       -6.1107985435      -11.6125964045
 C        -4.3226844163       -6.5753975092      -12.1642931604
 O        -5.1318194222       -7.4312280814      -11.7449157088
 C        -4.6370717907       -5.8212330311      -13.4614605777
 C        -6.1195605373       -5.7052266352      -13.9056319633
 C        -6.2638032052       -4.9677634622      -15.2474732259
 O        -5.3575068121       -4.2224563352      -15.5513803163
 C        -7.6016926945       -4.8682466544      -16.0860176281
 C        -8.6609855879       -4.0464534333      -15.2922395789
 O        -8.5562483324       -3.8596766816      -14.0987242503
 C        -9.9587707984       -3.4692764489      -16.0548283201
 C        -9.7578803824       -1.9547940731      -16.3445789461
 C       -11.0174908436       -1.2652473277      -15.7490719243
 O       -11.9346431635       -1.9053672700      -15.2338282963
 C       -11.0539265837        0.2837683141      -15.4223574019
 C       -10.8487953681        0.5137001198      -13.8263566552
 O       -10.0081234403        1.2964115702      -13.4448224953
 C       -11.6417434694       -0.2925631977      -12.7974684226
 C       -10.0814694132        1.1651345196      -16.1909517452
 C       -12.5138860541        0.7353070385      -15.5722467697
 C        -7.2142014163       -4.1255700592      -17.3662672215
 C        -8.1059191541       -6.3327583416      -16.3891116428
 C        -3.0952717746       -4.7429334253      -10.9614648464
 C        -1.7932638775       -5.9879215511      -12.7746899119
 C         0.0414404402      -12.1597244688       -8.3836902896
 C        -2.0520035282      -11.7126458497       -7.0108001436
 C         5.2910318764      -12.3720375879       -6.0977146696
 C         5.0739730845      -10.8460465496       -4.1769067875
 C         5.4547388607       -5.5956974094       -8.9222313570
 C         4.0243891389       -5.6702341385       -6.7903871636
 C         0.6945489265       -1.6117902472      -12.6599855622
 C         2.0504774639        0.4084995223      -12.0713491571
 C        -2.3525360016        3.5283230992       -6.3474089699
 C        -2.3056193013        1.0174981156       -5.9089023732
 C        -9.2094448513        2.5222164740       -5.1211777795
 C        -9.7000826294        1.5392899747       -7.3665722119
 C        -4.5146849733        8.1572305916       -5.9420617893
 C        -6.3399808036        9.1015488675       -7.5334452780
 C        -0.5314910427        7.2018244451      -12.9713123019
 C        -2.4544502692        8.7886109382      -13.1326077814
 C        -7.2667884808        3.0469889584      -13.9501420642
 C        -7.3568759814        3.4825764191      -11.4483312129
 H        -6.2486214266        0.3648709776      -11.9733487453
 H        -4.5247633858        0.4144150403      -12.5163112729
 H        -5.8355896393        1.0100893868      -13.6819095333
 H        -5.5131738628        5.1871276962      -14.7735022469
 H        -4.1980831431        4.1226551156      -14.3114602596
 H        -4.2798898366        7.1964324589      -14.0618961860
 H        -3.2375102670        6.1613061386      -14.9746783292
 H        -4.2649699999        7.5147357236      -10.7652031028
 H        -3.3564986339        8.9688847700      -10.6390929524
 H        -3.2934177166        8.8992120628       -8.4605525195
 H        -2.6423037475        7.2977479489       -8.4831001034
 H        -7.5017212851        5.8555711311       -8.2051485118
 H        -8.5491993717        7.0751118169       -7.4445941523
 H        -9.6288645308        5.2430669302       -6.3418310815
 H        -8.1351648364        4.8504560275       -5.6779481955
 H        -6.6902124210        1.9445021144       -8.6181371269
 H        -7.0585529981        0.3479358785       -8.1177668512
 H        -4.6386865219        0.3684775123       -8.3853055147
 H        -4.9365501996        0.2452999702       -6.6136291457
 H        -1.3669934403        0.0246676062       -8.3129134471
 H         0.0693021129        0.7593259289       -7.6613270617
 H         1.3313411857        1.2278528773       -9.3916419688
 H         0.0069198394        1.4870166730      -10.6412780181
 H         1.8908212373       -3.7980200814      -11.0447260805
 H         1.5006415373       -2.9328004092       -9.5751286229
 H         3.8470634039       -3.2554570776       -8.8774790008
 H         4.2538464068       -4.0780394805      -10.2230395768
 H         6.1395926155       -7.8220764709       -8.2922172847
 H         5.4691601017       -8.5727427627       -9.6762548879
 H         6.1486599546      -10.4324120485       -7.9506029684
 H         4.4580900124      -10.4923094823       -8.5733905754
 H         2.2240031936       -9.7181994041       -4.9427955740
 H         2.0134768458      -11.1138843463       -3.7475501479
 H        -0.1785521866      -11.0576094081       -4.7371779036
 H         0.5828806343      -12.2222260844       -5.6184854813
 H        -1.6915291159       -7.9766522882       -7.6865936758
 H        -3.0907617670       -8.9768654590       -7.7308032577
 H        -3.9975729533       -7.4272292969       -9.0994840271
 H        -3.6525865098       -8.8148079117      -10.1589105637
 H        -4.1517355663       -6.4032888371      -14.3025574016
 H        -4.0966310547       -4.8190911479      -13.4445383335
 H        -6.5886885174       -5.2134015748      -13.0475998711
 H        -6.6108374270       -6.7537081048      -14.0406893486
 H       -10.8480973585       -3.6087731238      -15.4976575539
 H       -10.0542484077       -3.9926772220      -17.0327489864
 H        -9.4162259837       -1.7521940588      -17.3272742772
 H        -9.0234852484       -1.4561819108      -15.6245193615
 H       -11.3930808780       -1.3460244073      -12.9733807616
 H       -12.7423391073       -0.1905611191      -12.8781224490
 H       -11.3539225892        0.0260227175      -11.8443280906
 H        -9.2523392745        0.6105916869      -16.4973193903
 H        -9.7328603556        1.9587518501      -15.5478508767
 H       -10.5815792569        1.6610116717      -17.0143975777
 H       -13.2874565592        0.1506121754      -15.0267035988
 H       -12.8530484186        0.6913211694      -16.5865094827
 H       -12.6572959160        1.7812479866      -15.2407442303
 H        -8.1052214292       -4.1361959287      -18.1120759663
 H        -6.3450791459       -4.5243426482      -17.8036433154
 H        -6.9033449378       -3.0995665244      -17.1475744486
 H        -8.4199817241       -6.6889201451      -15.4233303428
 H        -7.3700747692       -6.9128306253      -16.8738361333
 H        -8.9809420532       -6.3839691608      -17.1041328695
 H        -3.4558602833       -4.0309566969      -11.6826957916
 H        -2.2275750108       -4.2551817884      -10.5113085637
 H        -3.9194433811       -4.8031444988      -10.2066100216
 H        -0.9786002705       -5.4941463780      -12.2063958474
 H        -2.1084351065       -5.4050872055      -13.6579091700
 H        -1.5971646567       -6.9274779339      -13.2000414044
 H        -0.5215401308      -12.7802471152       -9.1260653588
 H         0.4836502425      -12.8739832502       -7.6935181820
 H         0.9022426124      -11.7757867796       -8.9294257716
 H        -2.6475447011      -12.2102767201       -7.7200342143
 H        -2.5756194629      -10.9860701380       -6.4042065139
 H        -1.5196812285      -12.4131796538       -6.3724185064
 H         5.1610603579      -12.4332331158       -7.1922282647
 H         4.9800460993      -13.3132696772       -5.5943558793
 H         6.3939820754      -12.2918325786       -5.8334201805
 H         6.1067275025      -10.6536122880       -4.0555144373
 H         4.8639476327      -11.6528077680       -3.4906675406
 H         4.6014488431       -9.9522355092       -3.8304872579
 H         6.2389747320       -5.8901262665       -8.2973009141
 H         5.7394885992       -4.5809546417       -8.9835592361
 H         5.5600581477       -6.1465979872       -9.8587335246
 H         3.1042859630       -5.8324152293       -6.3087417057
 H         4.2379379945       -4.5978873458       -6.6092855404
 H         4.8453368705       -6.0975027060       -6.3501776247
 H         0.7783257026       -2.6816160713      -12.5855150135
 H         1.0195652041       -1.2005298677      -13.6003947791
 H        -0.3517346285       -1.4110483193      -12.6118121801
 H         2.1675998611        1.2226521589      -11.4093420481
 H         1.4780991580        0.7090897978      -12.8589241731
 H         3.1110049736        0.2088524513      -12.3298729724
 H        -2.7607829518        3.5678076351       -5.3316405212
 H        -2.7188198235        4.3835295888       -6.9438004868
 H        -1.3119568817        3.7023500064       -6.1757013227
 H        -2.1897240272        1.5828439803       -4.9958631164
 H        -1.2886695599        0.6572343812       -6.1460880590
 H        -3.1293969455        0.2289497471       -5.9389302598
 H       -10.1899617730        3.0517581306       -5.1012763893
 H        -8.4268894632        3.0605108564       -4.5046406256
 H        -9.1955157876        1.6086055111       -4.5281839710
 H        -9.6175970265        1.6898490661       -8.4145396678
 H       -10.7678989977        1.6977938447       -7.1810539801
 H        -9.5119646241        0.4518569355       -7.3285583265
 H        -4.8910126450        9.0875257293       -5.4317379252
 H        -3.4711835359        8.2826981366       -6.1969364214
 H        -4.5346167363        7.3972933019       -5.1974886875
 H        -7.0903583949        8.7675800063       -8.1614850393
 H        -5.7174537975        9.8003372239       -8.1416250467
 H        -6.6991961596        9.7628539422       -6.7877325060
 H        -0.3388646362        8.0173858750      -13.6936018546
 H        -0.5135024627        6.3458855260      -13.5663042259
 H         0.1999488249        7.2917961222      -12.1574280861
 H        -3.4341429414        9.1542428597      -12.7535956145
 H        -2.5405123839        8.7995087393      -14.1536909664
 H        -1.7676510744        9.5959788172      -12.8618668168
 H        -6.6992952681        2.7780986340      -14.8558723803
 H        -7.7825549937        3.9350826674      -14.2561549794
 H        -7.9280226478        2.1932935520      -13.7544295769
 H        -8.1063289128        4.2133988607      -11.6097120989
 H        -6.7537166993        3.5862232933      -10.5743772602
 H        -7.9463898778        2.5988837928      -11.4208168664
 Na       -3.8716650990        4.5721760084       -9.9841659549
 Na        0.7266455774       -7.6722874976       -8.7561082313
