232

 C        -5.5938109710        1.0450257483      -12.5519259023
 C        -5.2771491435        2.5037225693      -12.2477047803
 O        -4.2568949827        2.7895720103      -11.6345119590
 C        -6.2970740743        3.5533066286      -12.6949908578
 C        -5.5220275508        4.9141603714      -12.8865445067
 O        -5.5381132319        5.7687451628      -12.0178990776
 C        -4.7895563851        5.1442976112      -14.2262731045
 C        -3.9517649331        6.4324387217      -14.0926372086
 C        -2.9724521340        6.3373196637      -12.8906320893
 O        -2.9031438626        5.3040879004      -12.3102766394
 C        -1.9423367514        7.4791203919      -12.5867902409
 C        -2.0108903842        7.6162606389      -10.9331226846
 O        -1.0398910541        7.3414292655      -10.1854173655
 C        -3.3544593034        7.8427383021      -10.3314651384
 C        -3.4571614404        7.9852685428       -8.7565315616
 C        -4.6127093550        7.1332230957       -8.2352931366
 O        -4.7493713608        5.9530196409       -8.5998000776
 C        -5.5411134915        7.7313066049       -7.0363231140
 C        -6.6339603462        6.7955993305       -6.3666296735
 O        -6.5367829403        6.5203353175       -5.1976070854
 C        -7.6397166080        6.1711433508       -7.2337099871
 C        -8.4430370907        5.0238648977       -6.4837214135
 C        -8.4946486944        3.6922401606       -7.2974268123
 O        -8.1560664723        3.6620580479       -8.4702558022
 C        -8.5872845250        2.2845965983       -6.5463241665
 C        -7.1543452441        1.7158528188       -6.5241910663
 O        -6.5088007801        1.4876700331       -5.5328081618
 C        -6.4390631171        1.3736238214       -7.8341305452
 C        -4.9664908826        0.8927534398       -7.7575834188
 C        -4.0705066462        2.1666899962       -7.6677150665
 O        -4.4519379748        3.1366659989       -8.2910790884
 C        -2.5688865113        2.2519205722       -7.0434003746
 C        -1.5887953835        2.0693528895       -8.2791404759
 O        -1.7713232276        2.8043902053       -9.2281096895
 C        -0.5916690867        0.9022500094       -8.4040025091
 C         0.3021685522        0.9076108550       -9.6741397174
 C         0.4163910570       -0.4425269660      -10.4022752445
 O        -0.2948359361       -1.3353876294       -9.9553771809
 C         1.3496610605       -0.8188735553      -11.6475218300
 C         2.4086419532       -1.6983920880      -10.9056714009
 O         3.5078176083       -1.3251898926      -10.7379014557
 C         1.9710011565       -3.0052089390      -10.2687734124
 C         3.2094553198       -3.8454183132       -9.9088777738
 C         2.7448720697       -5.1665480797       -9.0584287580
 O         1.6205602549       -5.5319047783       -8.8717702014
 C         3.8654415593       -6.0789349591       -8.4459242913
 C         3.9026497217       -7.6365926975       -8.5760695541
 O         2.8689419882       -8.3114361488       -8.5102472991
 C         5.3009490128       -8.4016655929       -8.5839016764
 C         5.1889233764       -9.7757823000       -8.0350625451
 C         4.8030867021       -9.6781180764       -6.4643516910
 O         4.8110826542       -8.6257141891       -5.8759372519
 C         4.4505570571      -10.9269226281       -5.6690875328
 C         2.9512344426      -11.3008714908       -5.9711948611
 O         2.7455069154      -11.8993876095       -6.9828145863
 C         1.8132787548      -10.7992484849       -5.0117704895
 C         0.3347457491      -11.1812859855       -5.4990644164
 C        -0.0065420267      -10.2754561995       -6.6662568630
 O         0.6835160124       -9.2482134867       -6.7381966078
 C        -0.9143056550      -10.9689664603       -7.8399555899
 C        -1.2297329432       -9.7995521706       -8.8159856376
 O        -0.5025827211       -9.7035168274       -9.8225154619
 C        -2.3757012124       -8.8415087456       -8.2894424264
 C        -3.0919595293       -8.1225078544       -9.5089450295
 C        -2.2473304816       -7.0717420080      -10.3010813290
 O        -1.1012009591       -6.9448521352      -10.0465282101
 C        -2.8961132456       -6.2512414337      -11.4371499901
 C        -4.3603826152       -6.6853931132      -12.0858340192
 O        -5.0898959074       -7.4041102887      -11.5019345579
 C        -4.6677861550       -5.9027603176      -13.3277080864
 C        -6.1050893083       -5.9506075279      -13.9727025982
 C        -6.1421699196       -4.9735065077      -15.1492624192
 O        -5.1201789430       -4.4062576522      -15.5019780121
 C        -7.5825551757       -4.8197842625      -15.9422261406
 C        -8.5684668553       -4.0186341324      -15.0347132552
 O        -8.3347457224       -3.7079360278      -13.8732656286
 C        -9.8059301257       -3.6223948019      -15.8519054460
 C        -9.7624980028       -2.1197654027      -16.0766323854
 C       -11.0555242907       -1.3387860018      -15.5628869082
 O       -12.0520253297       -1.9537544003      -15.2895993915
 C       -11.1115500891        0.1649610573      -15.3724830202
 C       -10.8938461992        0.4941631248      -13.8038226594
 O        -9.9941248379        1.2498272685      -13.5097396027
 C       -11.6423491021       -0.4540522648      -12.8906518300
 C       -10.1312170410        0.9500927937      -16.1800392966
 C       -12.4530905748        0.5298054848      -15.8796318446
 C        -7.2880738587       -4.0085837924      -17.2184908198
 C        -8.0350093906       -6.2364448678      -16.3117859236
 C        -3.2658835619       -4.8677354072      -10.6042832421
 C        -1.7887396237       -6.0852930934      -12.6013796300
 C         0.0090864815      -11.9111713134       -8.5991191909
 C        -2.2284043398      -11.7287741959       -7.3066296853
 C         5.3095510788      -12.1349394583       -6.1342213551
 C         4.6875279310      -10.5670589535       -4.2189355197
 C         5.2996621986       -5.4553368413       -8.7334977078
 C         3.6738028635       -5.8591921517       -6.9115331171
 C         0.6060317994       -1.8389725276      -12.5043809387
 C         1.9166624098        0.3692692734      -12.4615408189
 C        -2.4570272808        3.6465450603       -6.5722582619
 C        -2.2681875171        1.3138060925       -5.8820107821
 C        -9.0006258624        2.6068832319       -5.1119844990
 C        -9.6435130778        1.2435617146       -7.1097886532
 C        -4.7053848831        8.2928014957       -5.8466290142
 C        -6.2800662819        8.9270020026       -7.6987882426
 C        -0.6245756142        6.9363877457      -13.0293203187
 C        -2.3444549599        8.7966674865      -13.2320916104
 C        -7.0087818419        3.2312755184      -13.9790130271
 C        -7.3035258901        3.6742050823      -11.5372088184
 H        -5.6433660547        0.6977132074      -11.5292056756
 H        -4.7250419068        0.5839717500      -12.9167917964
 H        -6.5359116713        0.9707238932      -13.0433741837
 H        -5.5149780310        5.2228200200      -15.0536509953
 H        -4.2044785577        4.2796678273      -14.3622250106
 H        -4.6106210707        7.3181825703      -14.1693809630
 H        -3.3518803979        6.5318955814      -15.0018212806
 H        -3.9497505708        6.9105538005      -10.6046670993
 H        -3.8346771589        8.7252098888      -10.9120600598
 H        -3.7204518141        9.0507707628       -8.5888687602
 H        -2.4415199153        7.8292401570       -8.3641591930
 H        -7.1993984414        5.7261603786       -8.1876301591
 H        -8.3209499534        6.9709141620       -7.5087202566
 H        -9.4051359088        5.3685330467       -6.3682289089
 H        -8.0939907322        4.8417626955       -5.3902517952
 H        -6.4418505679        2.2582518856       -8.4757228433
 H        -7.1651997061        0.7558381548       -8.4151173796
 H        -4.7360171629        0.3471519449       -8.6663345769
 H        -4.7212120396        0.3337391275       -6.8088226247
 H        -1.1966293559       -0.0144861586       -8.2966887930
 H         0.0328920673        0.8588748330       -7.5008444954
 H         1.2764061211        1.3020945525       -9.5690486887
 H        -0.1891223599        1.5841287091      -10.3060768451
 H         1.2144678833       -3.6418032734      -10.8503227769
 H         1.5384425302       -2.7584391978       -9.3319688006
 H         3.9050438896       -3.3015032940       -9.1170741369
 H         4.0401615633       -4.2040250218      -10.5606152308
 H         5.8637289255       -7.6994142171       -7.8982585642
 H         5.7705867590       -8.2402580734       -9.5418290160
 H         6.1335947792      -10.2925975523       -8.1265890698
 H         4.3577784204      -10.3875411408       -8.3993560057
 H         1.9800193084       -9.7210221607       -4.8040132460
 H         2.0959453179      -11.3552913686       -4.1284460649
 H        -0.4950980769      -11.1689964046       -4.6327210678
 H         0.2310060578      -12.2062703277       -5.7517366224
 H        -1.7928344365       -8.2101048541       -7.5712951103
 H        -3.1368369791       -9.3807668028       -7.6929526497
 H        -4.0738799744       -7.8098759078       -9.3578527513
 H        -3.1474921745       -8.8161814493      -10.2913655647
 H        -4.0672260296       -6.2385299514      -14.1750954284
 H        -4.3274609328       -4.9034790760      -13.1295872502
 H        -6.8447500583       -5.5996010671      -13.2577922310
 H        -6.3393134530       -6.9158642591      -14.2645099620
 H       -10.7411738147       -3.7756760291      -15.1681114757
 H        -9.9024742858       -4.2706319565      -16.7409454524
 H        -9.7309149322       -1.8340690285      -17.1801396225
 H        -8.9335290274       -1.6256751728      -15.6120147807
 H       -11.0640125185       -1.3662435929      -12.8647757218
 H       -12.6101765615       -0.7204858216      -13.2731989724
 H       -11.6313512745       -0.0250793735      -11.8425920375
 H        -9.1478015484        0.4323741201      -16.4322121518
 H        -9.8959584112        1.8915549504      -15.6955433628
 H       -10.5882775124        1.2236204883      -17.1173171831
 H       -13.2323321034        0.0156666484      -15.4721116978
 H       -12.5627733666        0.2330400329      -16.9243089510
 H       -12.7008130469        1.5589832261      -15.7579031403
 H        -8.2097732469       -3.7300237950      -17.6399845207
 H        -6.5759640255       -4.5532014055      -17.9425988934
 H        -6.7678484815       -3.0615535861      -17.0301667085
 H        -8.4897556742       -6.7841984603      -15.4670035168
 H        -7.2685134631       -6.7601328959      -16.9312916847
 H        -8.7869954457       -6.0909960004      -17.0332944902
 H        -2.9801207608       -3.9197735044      -11.0539206483
 H        -2.7507484932       -4.8553964744       -9.6765480575
 H        -4.3039889157       -4.8071076945      -10.4188290108
 H        -0.7942462003       -6.1907079498      -12.2289205665
 H        -1.8449477179       -5.0939864441      -13.0393456742
 H        -2.1970973800       -6.6890834124      -13.4423430144
 H        -0.1692472960      -11.9692810924       -9.6489398525
 H        -0.1245654950      -12.9481333699       -8.3128271185
 H         1.0614497234      -11.7165852294       -8.4909280024
 H        -2.4989964784      -12.2966890937       -8.2293584666
 H        -2.9382806953      -10.9332361832       -7.1948525046
 H        -2.1172636024      -12.2536693737       -6.3498103167
 H         5.3886468300      -12.2516518972       -7.2268873930
 H         4.7836831716      -12.9934630085       -5.7273421320
 H         6.2558361897      -12.1931900508       -5.6609923531
 H         5.7547511442      -10.3573441597       -4.0634355354
 H         4.5269397826      -11.4402798032       -3.6201884396
 H         4.2108691436       -9.7274933099       -3.7323684675
 H         6.1396634726       -5.8135193713       -8.0658130840
 H         5.3514619922       -4.4030996161       -8.4471418717
 H         5.7132889743       -5.6619781702       -9.7176559177
 H         2.6557568448       -6.1699868166       -6.5193170266
 H         3.7859878144       -4.8416057750       -6.5876139758
 H         4.5409010566       -6.4387419912       -6.3529666235
 H         1.1892182872       -2.7511402491      -12.6157203599
 H         0.2372415497       -1.3497710128      -13.3906975406
 H        -0.3230290306       -2.2655764308      -12.0597773388
 H         1.7109919924        1.2916837374      -11.8160306095
 H         1.3513605985        0.6697106043      -13.4175527057
 H         2.9646559617        0.3417437190      -12.5269383331
 H        -2.8804844316        3.8181078295       -5.5828299561
 H        -2.9130522189        4.3099594936       -7.3063296081
 H        -1.3980138703        4.0196891493       -6.5017606678
 H        -1.3821166028        1.7327591154       -5.4083951839
 H        -2.1417747550        0.3093667120       -6.2562174448
 H        -3.1459981317        1.3497719765       -5.3075604879
 H        -9.6800998255        3.4478108755       -5.1053035227
 H        -8.1367335394        2.8465318249       -4.5245957541
 H        -9.5365107492        1.7946806217       -4.5778752221
 H        -9.5976821223        1.0423963589       -8.2173082921
 H       -10.6677909063        1.6601856765       -7.0848443778
 H        -9.6885672075        0.2634882213       -6.6514049353
 H        -5.3209814258        8.6474211526       -5.0566787213
 H        -4.0293025430        9.1115051206       -6.1981902120
 H        -3.9823723274        7.4836547291       -5.4807444835
 H        -7.0853867591        8.5922590086       -8.4575036662
 H        -5.7576037964        9.7742049291       -8.0710782717
 H        -6.8616099201        9.4424742068       -6.8605702425
 H         0.1678586941        7.6092990925      -12.8239604497
 H        -0.7034718934        6.7356353173      -14.1194614622
 H        -0.5400296052        6.0162841285      -12.5023571644
 H        -3.3224149151        9.1999096409      -13.0255384353
 H        -2.2948099364        8.6266293892      -14.3875122210
 H        -1.6544774695        9.6143525442      -13.0670381239
 H        -6.3501890883        2.9500971931      -14.7789347032
 H        -7.5984463390        4.1080604775      -14.3550089042
 H        -7.6989420446        2.3975158423      -13.8407094486
 H        -7.9945374903        4.5816525139      -11.7187516787
 H        -6.7094104047        3.7619545139      -10.6373238617
 H        -7.8871702204        2.6939127562      -11.4620322939
 Na       -3.4874994000        4.3412233444      -10.2504433567
 Na        0.6967741471       -7.5442804758       -8.4481920583
