232

 C        -5.8449530313        1.0662946087      -12.5940023953
 C        -5.3220253101        2.5036655298      -12.0918289001
 O        -4.3342452426        2.6645461184      -11.4499607748
 C        -6.2711557204        3.6991691845      -12.7129042190
 C        -5.4334231910        5.0055638192      -12.8262135110
 O        -5.2425382668        5.8612470705      -11.9566630984
 C        -5.0147012544        5.5373653363      -14.2506802637
 C        -3.9349158103        6.6574183141      -14.1067795677
 C        -2.8270127134        6.2766303942      -13.1080042713
 O        -2.7763838523        5.1337019311      -12.5735103400
 C        -1.8208619006        7.4057645569      -12.4846982924
 C        -2.0893954473        7.3753127132      -10.9059850939
 O        -1.2147174413        7.0291923305      -10.0800302441
 C        -3.5241411813        7.8871252104      -10.4685578874
 C        -3.4439367853        7.9716905840       -8.8975344522
 C        -4.2659011163        7.0178529962       -8.1268672123
 O        -4.3073123080        5.8053849105       -8.3255831074
 C        -5.3366525413        7.7207586640       -7.2123409939
 C        -6.3056880810        6.6664570201       -6.4438752322
 O        -6.1265818940        6.4306255841       -5.2829081670
 C        -7.3161091209        5.9678809755       -7.3883642744
 C        -8.1860916340        5.0213302541       -6.6253147759
 C        -8.2386306863        3.5991363795       -7.2038534409
 O        -8.2473768068        3.4727325095       -8.4071985281
 C        -8.3519500892        2.2343282111       -6.3244793210
 C        -6.9472741351        1.5882949582       -6.3172483756
 O        -6.2554775538        1.4514070974       -5.3386226138
 C        -6.3763828173        1.0916597225       -7.6998580783
 C        -4.8062672345        1.0084094778       -7.6851839660
 C        -4.0600611166        2.3136005559       -7.9844452525
 O        -4.5580155472        3.1507615622       -8.7497342845
 C        -2.5497379527        2.3785976583       -7.4692169509
 C        -1.6560883542        2.1707420639       -8.7452166386
 O        -1.7482495084        2.8178471034       -9.7389626882
 C        -0.5087561994        1.1879571339       -8.5094759556
 C         0.3299851175        0.9134241298       -9.7795802076
 C        -0.0312676983       -0.4761084402      -10.3279791459
 O        -1.0112122854       -1.1473584043      -10.0391174987
 C         0.9550723425       -0.9248021668      -11.5452671761
 C         2.1184762069       -1.7774474099      -10.8828047710
 O         3.1877253629       -1.2611026724      -10.7874902386
 C         1.7760659485       -3.0881786435      -10.0346591073
 C         2.9395305900       -4.0803434678      -10.0547437083
 C         2.7169495379       -5.2518230946       -9.1036946488
 O         1.5558059924       -5.6482638760       -9.1658769998
 C         3.7454521269       -5.9059068478       -8.1962084821
 C         3.8031559950       -7.4905960956       -8.6200366953
 O         2.7403898275       -8.0612532096       -8.8382763561
 C         5.0575557975       -8.2896523658       -8.7671957324
 C         4.9162232795       -9.6244322495       -7.9561957937
 C         4.7889764470       -9.5156351819       -6.3853420673
 O         5.0718170137       -8.4789743632       -5.8626503667
 C         4.3180563261      -10.7383069940       -5.5803405093
 C         2.8405427572      -11.0739956642       -6.0966541746
 O         2.6459007052      -11.1863425495       -7.2750862225
 C         1.6454147519      -11.1300418574       -5.0969121884
 C         0.2767268771      -11.4188038250       -5.7915328065
 C         0.0315273092      -10.4203782936       -6.9049620727
 O         0.1745171421       -9.2235807692       -6.7029843070
 C        -0.7749153240      -11.0615432299       -8.0861673368
 C        -1.3065918244       -9.9217841188       -8.8711059241
 O        -0.7229425006       -9.4724225756       -9.8806672068
 C        -2.5238856541       -9.1468275994       -8.3350389210
 C        -3.1870157058       -8.3232085655       -9.4671372389
 C        -2.3699220408       -7.0739773282      -10.0661111899
 O        -1.3396196011       -6.8191802658       -9.6160774933
 C        -2.9031542034       -6.1020063647      -11.2008880394
 C        -4.2790333141       -6.5484456900      -11.9710916271
 O        -5.0222731671       -7.3355588365      -11.4991277835
 C        -4.5599107973       -5.9437678411      -13.3235467861
 C        -5.9570515125       -6.1274989942      -13.8612180352
 C        -6.0229793107       -5.1610905402      -15.0317544794
 O        -4.9773165758       -4.6095472230      -15.3334902124
 C        -7.2977385237       -4.8684363917      -15.8061817085
 C        -8.2625685596       -4.0855462219      -14.7496180919
 O        -7.8401087872       -3.7810320024      -13.6494130934
 C        -9.7929409198       -3.7347782933      -15.2303322493
 C        -9.7822261677       -2.2427577113      -15.6359763971
 C       -11.2452167382       -1.5834154971      -15.4561088724
 O       -12.2087190878       -2.2969150534      -15.3819071399
 C       -11.1924960049       -0.0294196713      -15.4374998958
 C       -10.9022272464        0.3362993050      -13.9514595459
 O       -10.0344381524        1.1473916240      -13.6991622985
 C       -11.7901278012       -0.3630031067      -12.8966203665
 C       -10.0902954051        0.5062084512      -16.3965474356
 C       -12.4725793387        0.7325896235      -15.7805771137
 C        -6.9982182297       -4.0577873491      -17.1046327619
 C        -7.9410597716       -6.1733253185      -16.1397750609
 C        -3.2623293796       -4.8117355488      -10.3486083576
 C        -1.7241361193       -5.8516697622      -12.1963640787
 C         0.0618058998      -11.9401746209       -8.9502231026
 C        -2.0096611911      -11.7869440884       -7.3097779884
 C         5.2689074903      -11.9863500340       -5.9078106900
 C         4.4627228166      -10.5059538515       -4.0953564025
 C         5.1350439400       -5.2880803693       -8.3567824754
 C         3.3560658163       -5.8182311479       -6.6602964233
 C         0.1918288592       -1.7100676215      -12.5795523415
 C         1.7707092874        0.2673773137      -12.1352297697
 C        -2.2332377930        3.7983710900       -7.0054383612
 C        -2.2349548095        1.4152903480       -6.2609671566
 C        -8.7537048855        2.4721014745       -4.8205074577
 C        -9.3335869260        1.3778286624       -7.1189377194
 C        -4.5414453942        8.5349162286       -6.1239702330
 C        -6.2576067687        8.7022338646       -7.9998259593
 C        -0.3415721142        7.0132916659      -12.8784216832
 C        -2.0602553068        8.8116267085      -13.1131442262
 C        -6.9103353792        3.2782530666      -14.0781717446
 C        -7.4549026446        3.8862705782      -11.6677540613
 H        -5.1260739044        0.2101939120      -12.4958087871
 H        -6.0157831494        1.3462325062      -13.6425797084
 H        -6.7739119510        0.9370175402      -12.0174668436
 H        -5.9943525573        5.9820597042      -14.5611402154
 H        -4.6830041318        4.8037620887      -14.9525097948
 H        -4.2839577523        7.6901184824      -13.8500339591
 H        -3.4506003666        6.7679800102      -15.0834830222
 H        -4.3234770822        7.2316949352      -10.8020933232
 H        -3.7478036737        8.8485179342      -10.9130885595
 H        -3.6530273380        8.9659492579       -8.6099817436
 H        -2.3994892028        7.8282053238       -8.6516235643
 H        -6.6756036859        5.4546919707       -8.1284678333
 H        -7.9773249230        6.6564771737       -7.8857226090
 H        -9.1843045601        5.4428201361       -6.6343178073
 H        -7.8126562082        5.0291812059       -5.5609711273
 H        -6.7810065535        1.7794204920       -8.4661906475
 H        -6.8717201499        0.2033292894       -8.0248068976
 H        -4.4129432382        0.2813749668       -8.3933808084
 H        -4.5047883943        0.7926011883       -6.6641167584
 H        -0.7930125855        0.2236240084       -8.1422055059
 H         0.0992508010        1.6024681660       -7.6437909161
 H         1.5023661809        0.9702053784       -9.7009681245
 H         0.0730054990        1.6573686757      -10.6891364652
 H         0.7807074418       -3.5352434294      -10.2651135420
 H         1.8164349875       -2.7143368306       -9.0100893332
 H         3.8722250559       -3.6039007121       -9.7783313556
 H         3.1442630913       -4.5341550415      -10.9779709588
 H         5.8978731673       -7.6263743335       -8.6357390248
 H         5.0329551139       -8.4843438167       -9.8167901643
 H         5.7738213324      -10.2760035767       -8.1905312902
 H         3.9362375963      -10.1192591881       -8.1304218821
 H         1.6488301193      -10.2208146815       -4.3733162848
 H         1.9273709929      -12.0302214383       -4.4645870130
 H        -0.5370148789      -11.3804235255       -4.9180429795
 H         0.2251115336      -12.4650735559       -6.1645448600
 H        -2.1121555632       -8.4306806330       -7.6565299668
 H        -3.1992378553       -9.8296059430       -7.7941067325
 H        -4.2116920563       -7.9405183299       -9.3253351282
 H        -3.1895558077       -8.9708544092      -10.3022157893
 H        -3.9299137328       -6.5510577979      -14.0522768483
 H        -4.2154786549       -4.8479677856      -13.3833291970
 H        -6.6846170597       -5.8344699164      -13.0205695286
 H        -6.1243962502       -7.1758589261      -14.1260114410
 H       -10.4763890446       -3.9581210782      -14.3328402029
 H       -10.0719313702       -4.3726725749      -16.0322104338
 H        -9.4437546715       -2.1197853682      -16.7257822911
 H        -9.1551142804       -1.7130200128      -14.9944042546
 H       -11.2867322563       -1.1257709081      -12.3136878513
 H       -12.4905714722       -0.8632560545      -13.4939174489
 H       -12.1955281934        0.4101198762      -12.2157332217
 H        -9.1976257814        0.7045162203      -15.8287559494
 H       -10.3356975901        1.4436801090      -16.8406865890
 H        -9.7730053180       -0.1756660687      -17.1721554208
 H       -13.3513570135        0.3627895336      -15.2474265940
 H       -12.8572271828        0.5804092129      -16.8200993161
 H       -12.4287028962        1.8025200446      -15.5807153527
 H        -7.7911400800       -3.8557396927      -17.7339633934
 H        -6.1783095475       -4.6882139934      -17.5853506898
 H        -6.6439245091       -3.0313257895      -16.8960304961
 H        -8.1931694413       -6.8039102952      -15.3012066347
 H        -7.2385580292       -6.7253732725      -16.8101237871
 H        -8.8712414940       -5.9815038942      -16.6586838240
 H        -3.8060848815       -4.0716859374      -10.9963294988
 H        -2.3813848688       -4.2722414633       -9.9072982943
 H        -3.9535112027       -5.0504722583       -9.5538456510
 H        -1.0678911214       -5.1152317460      -11.7410555209
 H        -2.0229895739       -5.3351258525      -13.0941565346
 H        -1.2171620519       -6.8401704493      -12.4015245363
 H        -0.5341339424      -12.5126209575       -9.6347034445
 H         0.5984337542      -12.7909792309       -8.4603789869
 H         0.7455138502      -11.3333191481       -9.5805810569
 H        -2.8720459459      -11.6940645418       -7.9425890650
 H        -2.1428366208      -11.2821476899       -6.3798814624
 H        -1.6992711902      -12.7750816264       -7.1152176918
 H         4.8778610264      -12.5493952207       -6.7783880196
 H         5.4112374229      -12.6628326801       -5.0410982598
 H         6.2184331868      -11.6055993198       -6.2949307284
 H         5.4870666199      -10.4021684181       -3.7608418351
 H         4.0211462479      -11.3079092819       -3.5070200849
 H         3.9387817643       -9.6235547707       -3.7456929903
 H         5.8940911299       -5.7447477242       -7.7264051121
 H         5.0635038366       -4.2192827439       -8.1186829994
 H         5.5836761562       -5.3680462838       -9.3042657584
 H         2.4315403532       -6.3590479603       -6.5088750560
 H         3.2207928504       -4.8475446388       -6.3444752418
 H         4.0242719686       -6.4307384572       -5.9924225372
 H         0.2694017367       -1.4252504676      -13.5903071317
 H        -0.8294082198       -1.9327245139      -12.1883274960
 H         0.6359933223       -2.6735701434      -12.6092741963
 H         2.4042860182        0.7037890517      -11.4289581656
 H         1.0919607639        1.0819089609      -12.4030359457
 H         2.2904761057       -0.0452092087      -12.9947647147
 H        -3.1432031081        4.2263528486       -6.6275447815
 H        -1.9824293692        4.4353723050       -7.8175119857
 H        -1.4310362850        3.9734124616       -6.2803756228
 H        -1.1353817298        1.1809291664       -6.3086265744
 H        -2.9331195093        0.5736670272       -6.3426384218
 H        -2.4925807550        1.8545357589       -5.3199897840
 H        -9.8492165997        2.5337497672       -4.6891847785
 H        -8.3323771230        3.4109809293       -4.4360592137
 H        -8.5844771087        1.5127690179       -4.3053261493
 H        -9.2157944932        1.3097184557       -8.2055847055
 H       -10.2807630302        1.8279931896       -7.0909141159
 H        -9.5839151404        0.4455562988       -6.6727649248
 H        -4.8038415115        8.1143585298       -5.1588570805
 H        -4.9297237711        9.5400235397       -6.0723622802
 H        -3.4532444520        8.5253789787       -6.2884104423
 H        -6.7072896472        8.3876330232       -8.9355829980
 H        -5.6866538375        9.5744196217       -8.2029650367
 H        -7.0992881329        9.0330080248       -7.4481987991
 H         0.2084279604        7.1336273394      -11.9764810252
 H         0.1141854238        7.6134042994      -13.6968106709
 H        -0.4110388538        5.9846211429      -13.2497584975
 H        -3.0297389961        9.1695756568      -12.8774388385
 H        -1.9091990353        8.9008260743      -14.2156443234
 H        -1.3798453284        9.5065576189      -12.6625319137
 H        -6.1486876437        3.0281368330      -14.8210928057
 H        -7.4741955973        4.1725484855      -14.4190283144
 H        -7.7648785959        2.5955427432      -14.0942331105
 H        -8.0803296313        4.6754538951      -11.9961819718
 H        -7.0209378919        4.1853607112      -10.7510683912
 H        -7.8188264934        2.9343111668      -11.4687143419
 Na       -3.2266155078        4.6442511190      -10.1399713950
 Na        0.4375529295       -7.6569854101       -8.4610122321
