232

 C        -5.9013212339        1.2127414944      -12.5727678275
 C        -5.4836839047        2.7085230970      -12.2019549854
 O        -4.3787511797        2.8834483912      -11.6968137521
 C        -6.5039374552        3.9142952988      -12.6425932162
 C        -5.5882909799        5.2026959320      -12.7094909448
 O        -5.2864370693        5.8191796417      -11.6946002718
 C        -4.8172680644        5.5155791215      -14.0126253788
 C        -3.9227641203        6.6986030575      -13.7822553192
 C        -2.5589539452        6.1816660257      -13.0670958071
 O        -2.2215846013        4.9959183026      -12.9620079412
 C        -1.5906450742        7.3162485109      -12.4125414414
 C        -1.9874296001        7.2158610933      -10.9053263816
 O        -1.6888394478        6.1791040898      -10.2578471109
 C        -2.8110926227        8.3874548871      -10.3688909567
 C        -2.9705722802        8.3326856172       -8.8313326567
 C        -4.1004677587        7.4263688602       -8.3226779774
 O        -4.3818394799        6.3699997177       -8.8984816304
 C        -5.2261935090        7.9099813398       -7.2613811158
 C        -5.8298703643        6.5886389606       -6.6851960113
 O        -5.4797441039        6.2223309612       -5.5786223384
 C        -6.8660677836        5.7539032941       -7.4119635187
 C        -7.4610521820        4.6553658850       -6.5162082522
 C        -8.0358007067        3.3533497193       -7.1428666612
 O        -8.1844783069        3.2830633790       -8.3524147679
 C        -8.1062479496        2.0948887498       -6.2431088446
 C        -6.6809902841        1.5840184269       -6.2496198128
 O        -5.9124025350        1.6171942522       -5.2848465153
 C        -6.2309849722        1.0510713620       -7.5692575945
 C        -4.7096274224        0.9703495146       -7.5680260658
 C        -4.0797938423        2.2495502819       -8.0823197680
 O        -4.5418346357        2.9132002166       -9.0306439622
 C        -2.5467305297        2.6445189929       -7.6053486109
 C        -1.5258301081        2.1952486349       -8.7505114551
 O        -1.6484661206        2.8422042720       -9.7332908550
 C        -0.3614360838        1.2624779302       -8.5835366247
 C         0.4647412428        1.0106747008       -9.8880942580
 C        -0.0795213284       -0.2649684081      -10.6861807494
 O        -1.0941049200       -0.8229096361      -10.3287709497
 C         0.7146680756       -1.0966677277      -11.8472382190
 C         1.8698354861       -1.8276794536      -11.0422572641
 O         2.8807591076       -1.2210468823      -10.8918577612
 C         1.5721895397       -3.2090274951      -10.3472829139
 C         2.6854637931       -3.9174559406       -9.6590818788
 C         2.2117969536       -5.2507191997       -9.0259422239
 O         1.0743532920       -5.6658522114       -9.0748805572
 C         3.3377613608       -5.9615121721       -8.2008262081
 C         3.7223735629       -7.4240107707       -8.6853819634
 O         2.8005281300       -8.2109275676       -8.9122254834
 C         5.1650205003       -8.0017595093       -8.6922336311
 C         5.1131440830       -9.4145635136       -7.9424319049
 C         4.7906062820       -9.2840298146       -6.4657349009
 O         5.0307976959       -8.2529681612       -5.8751972949
 C         4.2185238802      -10.5313581778       -5.6700361614
 C         2.8034535389      -10.8015008280       -6.1261253796
 O         2.5245581555      -10.6708994829       -7.3067948685
 C         1.5803604571      -11.1032477958       -5.1251996714
 C         0.2876951175      -11.7708964969       -5.8213931194
 C        -0.1744862823      -10.8074022789       -6.9597433575
 O         0.1022358665       -9.6196039140       -6.7563453443
 C        -0.8714852456      -11.3312684366       -8.1742697894
 C        -1.4943331887       -9.9623292946       -8.8588034513
 O        -0.8465030163       -9.5213291376       -9.8110777015
 C        -2.8517000076       -9.3195711047       -8.3001340126
 C        -3.2705655737       -8.2863448768       -9.3802751304
 C        -2.6393051291       -6.8980351995       -9.4804097040
 O        -1.8322029647       -6.6166188119       -8.7257497039
 C        -2.9996050964       -5.8775677909      -10.8116897766
 C        -4.1161561596       -6.4850589115      -11.8744175753
 O        -5.0176463989       -7.1609066978      -11.4436258280
 C        -4.1124917931       -6.0016231538      -13.3582046253
 C        -5.5191624342       -5.9859266792      -13.9138944891
 C        -5.8169072612       -5.1366559947      -15.1647833087
 O        -4.9021657908       -4.6398440993      -15.7813567110
 C        -7.2981230676       -4.9454335341      -15.5786249406
 C        -8.0596712342       -4.1927600685      -14.3932795649
 O        -7.5300717699       -3.7271007696      -13.4044913890
 C        -9.5530736971       -3.7909972744      -14.6646437829
 C        -9.6205526189       -2.2983901965      -14.9463541700
 C       -10.9954889640       -1.9322224191      -15.4974369349
 O       -11.8707468393       -2.7454196836      -15.5951649882
 C       -11.2429964360       -0.3050899595      -15.4911846802
 C       -10.9154628252        0.3281420507      -14.0378825740
 O        -9.7983856786        0.7481894608      -13.8660104702
 C       -11.8515984259        0.3053129619      -12.8470620050
 C       -10.2689091388        0.4036532523      -16.4543493048
 C       -12.6733025916       -0.0051435563      -15.8336605002
 C        -7.4596170783       -4.1698343613      -16.9314082947
 C        -7.8960143772       -6.3663843486      -15.7883175719
 C        -3.6868607892       -4.5427562637      -10.2065981030
 C        -1.5952591521       -5.5279196111      -11.4213646578
 C         0.2027414603      -11.9590167446       -9.0943540268
 C        -1.9959778913      -12.4018508977       -7.8834124151
 C         5.0010828100      -11.8043072723       -5.9485312873
 C         4.3781025600      -10.2120205291       -4.1593995062
 C         4.5466077386       -5.0528543146       -8.1425462646
 C         2.7489657224       -6.0547421139       -6.7350706304
 C        -0.4028112015       -1.9812497394      -12.6014364362
 C         1.4538803342       -0.1712364098      -12.7931394229
 C        -2.4923763369        4.2295870364       -7.3845230640
 C        -2.2560311346        1.9934316836       -6.2790502276
 C        -8.6008288331        2.4465041550       -4.8261095460
 C        -9.1515306822        1.1942747206       -6.9287685258
 C        -4.7836961028        8.8082390979       -6.0975219413
 C        -6.3629063309        8.6893361672       -8.0129835030
 C        -0.0929786847        6.8813577589      -12.6631473223
 C        -1.6867849521        8.6837450637      -13.1357618465
 C        -7.0400815476        3.6363355967      -14.0294757868
 C        -7.7846008814        4.0727973059      -11.6908061787
 H        -5.1223412845        0.6369141202      -12.0765845383
 H        -5.8540264627        1.1900578353      -13.6589583834
 H        -6.8815699301        1.0261691802      -12.1176532082
 H        -5.5703691576        5.7270557421      -14.8665377533
 H        -4.2446381591        4.6149702856      -14.2518932336
 H        -4.3976561481        7.4810009622      -13.1360046968
 H        -3.5947879337        7.1925500121      -14.6801813056
 H        -3.7516823052        8.2481690161      -10.7890300730
 H        -2.4722282117        9.3080681769      -10.7595927262
 H        -2.9996302510        9.3410490572       -8.4111813553
 H        -1.9979832005        7.9337204782       -8.4308334235
 H        -6.4792500260        5.3335636890       -8.3384383570
 H        -7.6911906150        6.3406454084       -7.7028319332
 H        -8.2517247122        5.1151144372       -6.0133187260
 H        -6.5877966566        4.3727923041       -5.8407038965
 H        -6.6432300669        1.5785670288       -8.4608631995
 H        -6.6263312308        0.0552947884       -7.7345806593
 H        -4.4094059452        0.2614700664       -8.3214931278
 H        -4.3076716627        0.8195971722       -6.5575104805
 H        -0.6634429721        0.3814725750       -8.0919123162
 H         0.4255545970        1.6147271186       -7.8613252499
 H         1.5664251767        0.7842968672       -9.5496939903
 H         0.4571470256        1.9859217524      -10.5188456784
 H         1.0212526418       -3.8173058902      -11.1105619633
 H         0.8853653761       -2.9025442123       -9.5695466109
 H         2.9967723048       -3.2739501610       -8.7574839833
 H         3.4546137978       -4.0091106424      -10.2692713641
 H         5.7909407103       -7.2285335817       -8.1820169319
 H         5.5606835443       -8.1985974384       -9.6677991572
 H         6.1415357082       -9.7819356483       -7.8859323052
 H         4.4162174152      -10.1016132074       -8.4511408348
 H         1.4302069005      -10.0667103098       -4.7659268002
 H         1.9795242840      -11.6645247250       -4.2983474545
 H        -0.5990932632      -11.8193986071       -5.0211957981
 H         0.5477333601      -12.7229567408       -6.2185125417
 H        -2.5972483851       -8.9620541048       -7.3044788437
 H        -3.7102229177      -10.0260430441       -8.1598307032
 H        -4.3540314641       -8.1787486315       -9.2538512619
 H        -3.0153034893       -8.8303230509      -10.3474115352
 H        -3.4410415365       -6.6196194079      -13.9479734597
 H        -3.6574867256       -5.0140097242      -13.4264571110
 H        -6.2515239458       -5.5582387785      -13.1443935532
 H        -5.8207880131       -7.0245468717      -14.0369685024
 H       -10.2486626722       -4.1135053332      -13.8978732700
 H        -9.8368122419       -4.2321859342      -15.5712913317
 H        -8.8313383608       -1.8867897931      -15.6385576747
 H        -9.6396543563       -1.7459848773      -14.0922183025
 H       -11.2340638146       -0.0511343225      -12.0063913282
 H       -12.6015465600       -0.4604115019      -13.0471019128
 H       -12.1873490941        1.3676001384      -12.5745568368
 H        -9.1908261037        0.0466337964      -16.5309827950
 H       -10.1874097892        1.4680584269      -16.1807050783
 H       -10.6118854217        0.3755682581      -17.4941712240
 H       -13.3600969313       -0.3444694673      -15.0973368077
 H       -13.0000602259       -0.3575328597      -16.8708062685
 H       -12.8777398366        1.0868560900      -16.0101340873
 H        -8.4140143390       -4.0323671213      -17.3095047807
 H        -6.9013048328       -4.6433894450      -17.8032863952
 H        -7.0693930900       -3.1914754402      -16.7078816170
 H        -7.7531224319       -6.9510054305      -14.8787618543
 H        -7.3840024580       -7.0039950537      -16.5407908638
 H        -8.9259153388       -6.2587316337      -15.9793121959
 H        -4.7282254244       -4.4901968924      -10.5693013360
 H        -3.1825310585       -3.6274792609      -10.5304514558
 H        -3.6465988647       -4.4965042349       -9.1477114581
 H        -0.8228331613       -5.7387036844      -10.7239669356
 H        -1.6031652281       -4.5069095509      -11.7430892930
 H        -1.2887294040       -6.2473518325      -12.2121261876
 H         0.5582210482      -12.9394276667       -8.7943974047
 H         1.1284781881      -11.3455922514       -9.1613053130
 H        -0.2447928929      -12.0574568874      -10.0904635517
 H        -2.3069816953      -12.8604853967       -8.8417072953
 H        -2.7323266721      -11.7840070358       -7.4513937603
 H        -1.5591244776      -13.1789824917       -7.2998522533
 H         5.4342322036      -11.7989704224       -6.9300260324
 H         4.3740312244      -12.6501669680       -5.9010991839
 H         5.8042981911      -11.8801775402       -5.3058291674
 H         5.4616636372      -10.1001532997       -3.9187596331
 H         4.0417948226      -11.0415517838       -3.5180766067
 H         3.7509053048       -9.4213025725       -3.7188157120
 H         5.3047011686       -5.6155450416       -7.5222373916
 H         4.3880449289       -4.0815350793       -7.6470415138
 H         4.9430860306       -4.7783173007       -9.1091220174
 H         1.9276761047       -6.6773988257       -6.4511581842
 H         2.6457036085       -5.1037088723       -6.3961708075
 H         3.5530626435       -6.5898821142       -6.1597453096
 H        -1.3364890356       -1.4637574377      -12.9223856476
 H        -0.7501223051       -2.9164599199      -12.1786567799
 H         0.1749470979       -2.4035893234      -13.4789283328
 H         1.7188647215        0.7489575651      -12.2439663531
 H         0.7202085704        0.1557272079      -13.5808094758
 H         2.2433266961       -0.5141472913      -13.3214821189
 H        -3.2811600517        4.4539387208       -6.7067466805
 H        -2.7033561336        4.8899997861       -8.1935578898
 H        -1.5738076183        4.6406434443       -6.9481496838
 H        -1.1491673800        2.2420711825       -6.0878606029
 H        -2.3231744949        0.8865586060       -6.2467414474
 H        -2.7604141614        2.5047598175       -5.4578847786
 H        -8.8835589669        3.4951554091       -4.7145247744
 H        -7.7095615301        2.3372361410       -4.2233093538
 H        -9.4030454749        1.7027458065       -4.5413596577
 H        -8.9549767692        1.0061721692       -8.0083878251
 H       -10.1402754319        1.6008239894       -6.8525663454
 H        -9.2848711076        0.2292607702       -6.5007371968
 H        -3.7760605733        8.6135068656       -5.8509124937
 H        -5.4230354544        8.5077728771       -5.2744742889
 H        -4.9065144638        9.8929972829       -6.3310334727
 H        -6.7772757271        8.2730757877       -8.9377199675
 H        -5.9247738500        9.5461352791       -8.3695041362
 H        -7.2360966701        8.8953306932       -7.4155966008
 H         0.6219896453        7.7506303309      -12.7703905500
 H        -0.2071817088        6.2768641101      -13.6539300333
 H         0.2349346300        6.1238489897      -11.9388607601
 H        -2.6655440580        9.0759595709      -13.3219787629
 H        -1.2354385198        8.3973180544      -14.1542794555
 H        -1.0491567460        9.4302527761      -12.7090680922
 H        -6.3642371540        3.4781922045      -14.8814667247
 H        -7.7308624358        4.4648365797      -14.3703518123
 H        -7.7802344935        2.8231508883      -14.0607602217
 H        -8.3734987667        4.9586866037      -12.0422847527
 H        -7.5583502064        4.2129296576      -10.6939603017
 H        -8.2128430614        3.0611724763      -11.7607634521
 Na       -3.3667022930        4.4528459000      -10.3507348030
 Na        0.3823865039       -7.9348570533       -8.5338129616
