232

 C        -6.1180415503        1.2751286567      -12.6847744449
 C        -5.5392671971        2.7189990080      -12.2675420011
 O        -4.3672953183        2.7558210771      -11.8871616614
 C        -6.5086850634        3.8940208330      -12.6745117029
 C        -5.5375626640        5.2336615207      -12.6406723571
 O        -5.3777930238        5.9617633839      -11.6852942955
 C        -4.7709684268        5.4842377468      -13.8917757697
 C        -3.8047031804        6.6890862890      -13.7003133642
 C        -2.5015304490        6.1841325717      -13.0539719444
 O        -2.2988566131        5.0562245478      -13.0380930119
 C        -1.4857099678        7.2024900807      -12.5125098812
 C        -1.9625101560        7.2471473856      -10.9055122057
 O        -1.9241527951        6.2055936607      -10.3262773516
 C        -2.5131990252        8.5236880016      -10.2642037891
 C        -2.9916502736        8.3749879757       -8.7440349954
 C        -4.2819666642        7.5125089597       -8.4962397180
 O        -4.4767480717        6.5071227961       -9.1450691656
 C        -5.2125627394        7.9312279412       -7.3126547943
 C        -5.7390591733        6.5370731354       -6.6640966990
 O        -5.2844569364        6.1619981294       -5.5957280340
 C        -6.7803661311        5.7161707613       -7.4290808453
 C        -7.2796683462        4.6473726219       -6.4852665749
 C        -7.8795418209        3.4010456628       -7.1619998177
 O        -8.2542057972        3.3588550994       -8.3176144565
 C        -8.0641634052        2.1563884465       -6.2512968291
 C        -6.5926793162        1.5145913801       -6.2159012316
 O        -5.8596221541        1.6719242852       -5.2461305763
 C        -6.0468327588        0.9446319033       -7.5634933394
 C        -4.5555332870        0.9387801824       -7.6341639676
 C        -3.9793708714        2.2462027113       -8.1736930300
 O        -4.6143339845        2.8706748198       -8.9694232857
 C        -2.5364713485        2.7224715316       -7.5371991975
 C        -1.4518273235        2.3825229171       -8.7810593727
 O        -1.6356097909        2.8601624902       -9.8871529616
 C        -0.3875100495        1.2458551865       -8.6356795436
 C         0.3642226637        0.9384571203      -10.0082908627
 C        -0.2180257011       -0.2871043471      -10.6793524205
 O        -1.2664301381       -0.7740506154      -10.2966881760
 C         0.6402264257       -0.9448127540      -11.8955633908
 C         1.7135257068       -1.7897397517      -11.1007607410
 O         2.7989163890       -1.2424549203      -10.9006974138
 C         1.3496373269       -3.2503188394      -10.5123401284
 C         2.4694827831       -3.8349151945       -9.6234722367
 C         2.1633559525       -5.2332617088       -8.9955627154
 O         1.0885354491       -5.7363876689       -9.1466852835
 C         3.3257043933       -5.9961786001       -8.1036574311
 C         3.5692064134       -7.4585743022       -8.6275185559
 O         2.6435792653       -8.2447986899       -8.8884908872
 C         5.0412218317       -7.9938300414       -8.6852723295
 C         5.1809026267       -9.3146861594       -7.9424550886
 C         4.8686952190       -9.2021426014       -6.4358161369
 O         4.9271035400       -8.1777752803       -5.7548527077
 C         4.2125696628      -10.5226600067       -5.7117032018
 C         2.7050665402      -10.6989352747       -6.2154998784
 O         2.4764680378      -10.7019700121       -7.4135540227
 C         1.5927539480      -11.1043647567       -5.1383670983
 C         0.4124933320      -11.6771607206       -5.8882166086
 C        -0.2066170284      -10.6992367467       -6.9142922144
 O        -0.0332505753       -9.4842514444       -6.8571184272
 C        -0.9939003837      -11.3405577096       -8.1811626195
 C        -1.6017972244      -10.0000954447       -8.9384626406
 O        -0.8302640635       -9.5442252616       -9.7786326315
 C        -2.7028818050       -9.2315649392       -8.4588490922
 C        -3.4569004559       -8.3419101981       -9.5534256568
 C        -2.7528589398       -6.9443261705       -9.4892650310
 O        -1.9660726707       -6.5853218711       -8.5957683797
 C        -3.0203494077       -5.9579494339      -10.6577441735
 C        -4.0428016737       -6.4329944976      -11.8075865899
 O        -5.0000977098       -7.1565352501      -11.4928489753
 C        -4.0836501155       -5.9129093801      -13.2336357759
 C        -5.4445153185       -6.0065348775      -13.8601710216
 C        -5.7180165785       -5.1229512389      -15.1155647312
 O        -4.8630532335       -4.6984607617      -15.8404526508
 C        -7.2687375302       -4.9019778529      -15.4492398877
 C        -7.9602205757       -4.1209430676      -14.3926995631
 O        -7.4312941281       -3.8472722765      -13.3249163733
 C        -9.4663353705       -3.7495449692      -14.6554122785
 C        -9.5856187009       -2.2852975614      -14.7746139543
 C       -10.9581245937       -1.8883372636      -15.3083330436
 O       -11.7613056312       -2.7241577200      -15.6816028678
 C       -11.2606567710       -0.3774920068      -15.4642029168
 C       -10.8183394304        0.1609056483      -14.0388249284
 O        -9.7347584636        0.6824435699      -13.9022082100
 C       -11.9396778253        0.3993621861      -12.9054233227
 C       -10.3617930548        0.2580152885      -16.5630442023
 C       -12.7384472490       -0.1140755609      -15.7846694302
 C        -7.3870275759       -4.2985294171      -16.8315390842
 C        -7.9485022968       -6.3467869060      -15.6134281943
 C        -3.6046808977       -4.7222945838       -9.9839620537
 C        -1.6005252708       -5.4950127961      -11.2742372884
 C         0.1230958974      -11.8611316520       -9.1776244179
 C        -1.8861857249      -12.5369452676       -7.8699473898
 C         5.0663665315      -11.7786077263       -6.0380682601
 C         4.1669554473      -10.1891251660       -4.1484729087
 C         4.5714338547       -5.0223832313       -7.8937703306
 C         2.8035294337       -6.2971106080       -6.7293500759
 C        -0.3984975693       -1.8269911683      -12.5158464767
 C         1.4036442781       -0.1738771915      -13.0203030787
 C        -2.4395703801        4.2162391262       -7.3167066543
 C        -2.1625342266        1.9595299676       -6.2151386508
 C        -8.5563120531        2.3925887166       -4.7524940665
 C        -9.0810083401        1.2154562294       -6.9647179029
 C        -4.6839356536        8.7978655668       -6.1974021253
 C        -6.4048030121        8.6564852350       -8.0826137140
 C        -0.0387622698        6.6591988094      -12.5595450108
 C        -1.7079112326        8.6351696218      -13.0923928497
 C        -7.1000625300        3.5342570974      -14.0401506374
 C        -7.6721795844        4.1541937158      -11.6619769550
 H        -5.6076871687        0.4406821601      -12.1591344669
 H        -5.9291719388        1.3451020349      -13.7673293996
 H        -7.2105606645        1.3569697417      -12.4507119938
 H        -5.4491923690        5.7548093677      -14.7187577170
 H        -4.2682569788        4.5533199527      -14.1457595182
 H        -4.1862743157        7.4653303300      -13.0153279250
 H        -3.5684121038        7.1988916128      -14.6482525868
 H        -3.3064921974        8.9261501807      -10.8686060779
 H        -1.6794432868        9.2581497793      -10.3731520514
 H        -3.1163476226        9.4095429507       -8.4088888744
 H        -2.1737971831        8.0422001194       -8.1717532134
 H        -6.3342510113        5.2128670249       -8.3137420331
 H        -7.6180198077        6.2517085730       -7.8460493372
 H        -7.9727662255        5.0508695386       -5.8043735326
 H        -6.3003608547        4.2771609608       -6.0292350206
 H        -6.4645378737        1.3636033384       -8.4358390989
 H        -6.3569168805       -0.1230062919       -7.6511111497
 H        -4.2399553197        0.1999275379       -8.3462333409
 H        -4.1777155789        0.8137897495       -6.6156117822
 H        -0.9242179570        0.3984966251       -8.1521185621
 H         0.3519353510        1.5053748137       -7.8731299625
 H         1.5355902288        0.8750870851       -9.9701730823
 H         0.0544913014        1.8559049388      -10.6412371663
 H         1.2688912623       -3.7646493534      -11.5268013527
 H         0.4053303016       -3.2332280596      -10.0298804065
 H         2.6856601678       -3.1052238956       -8.7682648370
 H         3.3895912508       -3.8488264484      -10.3135273995
 H         5.7959637021       -7.2519347174       -8.3642334602
 H         5.2158713970       -8.2441716834       -9.7009323000
 H         6.2666399579       -9.5640424835       -7.9860574377
 H         4.5163009661      -10.1085016299       -8.3416172801
 H         1.3471556313      -10.2485217163       -4.4183653124
 H         2.1940552275      -11.9006727848       -4.5505588746
 H        -0.4168410540      -11.7582301035       -5.1281577723
 H         0.6157451734      -12.7076658625       -6.4707082341
 H        -2.2305110090       -8.5815790584       -7.6971853956
 H        -3.4140680098       -9.8048580775       -7.8905359075
 H        -4.4162062980       -8.3284725026       -9.2560466738
 H        -3.2897761895       -8.7126411591      -10.5252898579
 H        -3.3819689954       -6.5809450943      -13.8912079262
 H        -3.6193169410       -4.8951081827      -13.3629858492
 H        -6.3059347143       -5.7265553756      -13.2079267163
 H        -5.5799923551       -7.0884580538      -14.0804991196
 H       -10.0965921682       -4.0566609367      -13.7950271102
 H        -9.8697001984       -4.2681412926      -15.6170985805
 H        -8.8933200118       -1.7599449218      -15.4545495750
 H        -9.5240197083       -1.8756087743      -13.7678103603
 H       -11.5167514335        0.4072675609      -11.9232819312
 H       -12.7438364001       -0.3560849215      -13.0204627064
 H       -12.2192834277        1.4160533620      -13.1615168884
 H        -9.2808859735       -0.0181966211      -16.6203976095
 H       -10.3719560813        1.3387516670      -16.4427228375
 H       -10.7416499577        0.0714659512      -17.5414960206
 H       -13.3950247362       -0.3615323236      -14.9588201165
 H       -13.0541528994       -0.6486424404      -16.6839786884
 H       -13.0002484621        0.9181558098      -16.1306604053
 H        -8.4330157611       -4.3948845360      -17.2657564715
 H        -6.8672664921       -4.9257899279      -17.5403682489
 H        -7.0457265545       -3.2698997313      -16.9156702468
 H        -7.7673821451       -6.9776690531      -14.7065773802
 H        -7.5802676525       -6.9663061042      -16.4200874492
 H        -8.9843981166       -6.1704136744      -15.7466881333
 H        -4.7074462768       -4.7106880102      -10.0129004701
 H        -3.2501528574       -3.8467814353      -10.5162265695
 H        -3.2080938037       -4.5740423187       -8.9522000465
 H        -0.8290177267       -5.5088624784      -10.5512588854
 H        -1.7347040516       -4.5634100965      -11.8406407594
 H        -1.2110029435       -6.2891242115      -11.8967360115
 H         0.9163337074      -12.5060507137       -8.6867776453
 H         0.6830940865      -11.0202928784       -9.5654092823
 H        -0.2802603424      -12.4464694851      -10.0251695249
 H        -2.4351302831      -12.7602395639       -8.7554752279
 H        -2.4937052634      -12.3003877419       -7.0677977699
 H        -1.2053890854      -13.3449936540       -7.7795903638
 H         5.3348740347      -11.9152683719       -7.0880940589
 H         4.5975140236      -12.6973871843       -5.7290231556
 H         5.9959278633      -11.6285573700       -5.5115249610
 H         5.1470242010       -9.9975193408       -3.6813489857
 H         3.7215727581      -10.9696132395       -3.5426725485
 H         3.4658937148       -9.3831787566       -3.9080556483
 H         5.2166927257       -5.4363346951       -7.1059462602
 H         4.2414457230       -4.0949434482       -7.4666936870
 H         5.0674371429       -4.6629874162       -8.8120357860
 H         2.1900184493       -7.1367489248       -6.5701887752
 H         2.3320547230       -5.4015341603       -6.2934111995
 H         3.6213687561       -6.5953110597       -6.1275333213
 H        -1.1915559803       -1.2370697772      -12.9767747560
 H        -0.9453969784       -2.4772447455      -11.9388879145
 H         0.0986480966       -2.5114379153      -13.2193362766
 H         1.8431727330        0.7089763632      -12.5921812033
 H         0.8874836387        0.0232473276      -13.8892497430
 H         2.3025349941       -0.7275797436      -13.3776660631
 H        -3.2959212221        4.6141594312       -6.8249656597
 H        -2.4152797099        4.8330817423       -8.2318318420
 H        -1.5874438660        4.5244672031       -6.7480179256
 H        -1.0581654973        1.9689406258       -6.1508112991
 H        -2.4090060467        0.8722817926       -6.1396936244
 H        -2.4455123816        2.5747421520       -5.3094703864
 H        -8.8290859232        3.4671645868       -4.5968892013
 H        -7.6927774558        2.1486883150       -4.0713159734
 H        -9.4024969174        1.6668994950       -4.5868889382
 H        -8.6892703072        0.9110838958       -7.9152769734
 H       -10.0979873951        1.6371476984       -7.1204777672
 H        -9.2710429213        0.2748360744       -6.4899433285
 H        -3.6264991211        8.6810461196       -6.1687217983
 H        -5.1531693648        8.3851093994       -5.3044131728
 H        -4.9633295450        9.8627416925       -6.3174487063
 H        -6.5111271594        8.2282039478       -9.0411002188
 H        -6.1564781587        9.6550114645       -8.3189762695
 H        -7.3858766176        8.6235648583       -7.6539652040
 H         0.6851843654        7.5447637766      -12.5648261127
 H         0.0861714155        5.9815354853      -13.3956702327
 H         0.1093073726        6.0623511716      -11.6412316016
 H        -2.7257486173        8.9627287920      -12.9222672602
 H        -1.5334755483        8.6817865783      -14.1629973740
 H        -1.0165290552        9.2829873926      -12.5809127527
 H        -6.3935004844        3.3138500059      -14.8723442237
 H        -7.6788556570        4.4100177645      -14.4448137342
 H        -7.8752558600        2.7441378702      -14.0716647811
 H        -8.3023083556        4.9609797737      -12.0207552616
 H        -7.2735672448        4.4049841260      -10.6997524095
 H        -8.1482857073        3.2002158518      -11.5863852852
 Na       -3.2700663124        4.4123457683      -10.3122128736
 Na        0.4247470658       -7.8959220999       -8.5041497581
