232

 C       -15.9569656822      -13.8139796050       -0.5434290320
 C       -15.6732850008      -13.9698922918       -2.0200931868
 O       -15.8748335362      -13.0103492844       -2.7042841328
 C       -15.4529486919      -15.3903982805       -2.4641390116
 C       -14.9381300154      -15.3715517825       -3.9842511782
 O       -15.8048249711      -15.0646761382       -4.8099830252
 C       -13.5612500252      -15.6661673773       -4.3518577314
 C       -13.3282513055      -15.5960307496       -5.8448826120
 C       -13.7725907344      -14.1833947246       -6.4283450762
 O       -13.4501264100      -13.1611946790       -5.8045978704
 C       -14.5847515648      -14.0365816252       -7.7856749707
 C       -15.2994687651      -12.4988174803       -7.6190004348
 O       -16.3684743935      -12.4251464800       -7.0788607681
 C       -14.5500531636      -11.3087830042       -8.2296858231
 C       -15.4090621231      -10.0725269678       -7.8546528013
 C       -15.4576516288       -9.6611936238       -6.3779659288
 O       -15.2144858378      -10.4170534557       -5.4599183509
 C       -15.5521571506       -8.1779644573       -6.0016940914
 C       -13.9916335557       -7.7278930207       -5.8652489264
 O       -13.1016845269       -8.5632918261       -5.9321506507
 C       -13.6393558062       -6.3155423653       -5.5425407110
 C       -13.2213684565       -5.3095831055       -6.6653244036
 C       -13.2298833146       -3.8583057968       -6.3724589199
 O       -13.7297247183       -3.4601956275       -5.3775361330
 C       -12.5215683991       -2.9413564520       -7.4138144287
 C       -10.9124156701       -3.1711127845       -7.1899898054
 O       -10.5109521085       -4.2559422966       -6.9004546446
 C       -10.0042919784       -1.9590371462       -7.5380148368
 C        -9.7302072282       -1.0911357351       -6.2562569311
 C        -9.9014631106        0.5016893241       -6.4807118638
 O       -10.3981218344        0.8772408257       -7.4621634401
 C        -9.4427720915        1.5174404369       -5.3918061017
 C        -7.8875953403        1.6376863514       -5.8350144593
 O        -7.0179006842        0.9022467608       -5.5415462897
 C        -7.6833428592        2.7034543184       -6.9671520612
 C        -6.4951892187        2.3988971942       -7.8758499196
 C        -5.8107584279        3.6646910503       -8.3992307509
 O        -5.4809562739        4.5881010852       -7.7018240170
 C        -5.5390689605        3.7785839686       -9.9303754853
 C        -4.5706161522        2.5364349415      -10.2473044253
 O        -5.0625962539        1.4179827816      -10.2931553068
 C        -3.0266233655        2.8484915795      -10.4291707742
 C        -2.0936881436        1.7142301258       -9.7512113637
 C        -0.5685930252        2.0402654715       -9.8066862996
 O        -0.1697114338        2.7019025676      -10.6747558213
 C         0.3835287322        1.4750460725       -8.7056377418
 C         1.7456930169        1.8997930451       -9.2492268613
 O         2.5305213463        1.0621896117       -9.6226002465
 C         2.2011903755        3.4180629088       -9.2324499991
 C         3.1837927128        3.9008970377      -10.3640416081
 C         2.7041269572        5.3499711976      -10.7723052783
 O         1.6531526014        5.7507345840      -10.4680966272
 C         3.5312694437        6.0396702666      -11.8003209309
 C         3.7155339389        5.0776582162      -13.0150716583
 O         4.8139353900        4.5695247610      -13.1115266584
 C         2.6187061012        4.9923874276      -14.0223943758
 C         2.9078647699        5.7906807965      -15.3098946764
 C         3.4469988965        4.7447362427      -16.4183919222
 O         3.8589678926        3.6630195674      -16.1279435654
 C         3.5627804233        5.0510953053      -17.9859946242
 C         5.1826248020        5.2160697267      -18.2499366071
 O         5.7141366983        4.3066371584      -18.8764621003
 C         5.8972904794        6.2899980366      -17.4910294624
 C         7.3689402300        6.1344242716      -17.7026842766
 C         7.8183024642        4.6676028811      -17.1074527616
 O         7.0774222803        4.1854831195      -16.2460095371
 C         9.0273908702        3.8555589343      -17.5366451439
 C        10.0572841406        3.9827806226      -16.3543042689
 O         9.7350106688        4.5363914384      -15.3249435106
 C        11.3952542153        3.3012230464      -16.5151120154
 C        12.2130032030        3.0000817976      -15.2418572101
 C        11.6184098171        1.8607064982      -14.4788633590
 O        10.6886415897        1.1572558016      -14.9277473313
 C        12.1095272474        1.5623343394      -13.0530397319
 C        11.0794517794        0.8173068601      -12.2392305576
 O        11.3705592977       -0.2127530024      -11.6462438851
 C         9.5507526199        1.1740768799      -12.2760282169
 C         8.6525491183        0.1386802617      -13.0597352202
 C         7.2500394124        0.7338850245      -13.3373346660
 O         7.1535611196        1.9485233513      -13.5335806326
 C         5.9259931723       -0.2166692222      -13.4460846075
 C         5.5351873275       -0.0530298799      -14.9404333988
 O         5.1779599216        0.9842098882      -15.4611260621
 C         5.6453557447       -1.2578409853      -15.8411835536
 C         6.3580691681       -1.7714271485      -13.1720912164
 C         4.7963511281        0.4741785580      -12.5988031173
 C        13.4208591821        0.8178040347      -13.1453225791
 C        12.3672513178        2.9962784009      -12.3191601926
 C         8.5065652054        2.3131997434      -17.5026262327
 C         9.5306268182        4.2891021834      -18.9271901586
 C         3.0041599121        3.9083736354      -18.8778244571
 C         2.7972112566        6.4027446767      -18.3460476934
 C         2.7847025485        7.3671217458      -12.0767036882
 C         4.9468830467        6.3374054884      -11.1773324625
 C         0.0435412831        1.9525359248       -7.2651110989
 C         0.2609382200       -0.0761269313       -8.8550890266
 C        -6.9370422230        3.7065798154      -10.6535203573
 C        -4.9409139088        5.1753233381      -10.4325981860
 C       -10.2949346591        2.8610773719       -5.5039532775
 C        -9.6559619869        0.9269990586       -3.9950779948
 C       -12.8482126884       -3.3476832013       -8.8531305163
 C       -13.0124871446       -1.4934885116       -7.1280614081
 C       -16.1389032665       -7.1919791981       -7.1082599199
 C       -16.2607867886       -7.9790825389       -4.6365706025
 C       -13.5169668936      -14.1063692415       -8.9695047729
 C       -15.7076041252      -15.1041377127       -7.8904278663
 C       -14.3362945133      -16.0003405328       -1.5162545665
 C       -16.7811345570      -16.1630130125       -2.3950899976
 H       -16.6743744355      -13.0578565024       -0.3775996926
 H       -15.0071564746      -13.4625025783       -0.0810028689
 H       -16.2213534414      -14.7869649696       -0.0445806906
 H       -13.4029538224      -16.7017110077       -4.0052320086
 H       -12.9022276612      -15.0977063333       -3.7791065104
 H       -13.8951045528      -16.3344989070       -6.4426857550
 H       -12.2726282482      -15.7490803744       -6.1284376054
 H       -14.5424032063      -11.3401405757       -9.3266907689
 H       -13.5934134693      -11.1826962703       -7.7752456094
 H       -16.4812682643      -10.4365642360       -7.9689554155
 H       -15.2201453750       -9.1622330762       -8.5276591233
 H       -12.7534306904       -6.2494018935       -4.8714229069
 H       -14.5142118341       -5.8424229262       -4.9966769488
 H       -13.9630945947       -5.3919491124       -7.4484185637
 H       -12.1977372240       -5.5339743349       -7.1007504796
 H       -10.6548180177       -1.4777463815       -8.2437728332
 H        -9.0591722418       -2.3875314256       -7.9471860540
 H        -8.7309661652       -1.3224393677       -5.8713281486
 H       -10.3012773500       -1.6167803446       -5.4499971763
 H        -7.6877811417        3.6347519880       -6.3230449723
 H        -8.5259018678        2.7560939799       -7.5857760804
 H        -6.9941867207        1.8070198287       -8.6539047973
 H        -5.7209160238        1.7967297525       -7.3305532394
 H        -2.7729477597        3.8106086910      -10.0954857253
 H        -2.8288349136        2.7626651178      -11.5695371629
 H        -2.4087812545        0.7301634014      -10.0864585280
 H        -2.4424218022        1.7026127005       -8.6728885656
 H         2.6668689849        3.4936488987       -8.2509548029
 H         1.2860176001        3.9846475181       -9.2180426805
 H         3.1447526061        3.3196027221      -11.2419769551
 H         4.2188770205        3.8293206359       -9.9363785175
 H         1.6986049404        5.3943719463      -13.5513068442
 H         2.2686003757        4.0129649473      -14.3139584809
 H         3.6117224342        6.6365510782      -15.1681751985
 H         1.9669996609        6.1965508940      -15.6636432113
 H         5.7253409595        6.0111548311      -16.4299155369
 H         5.5216174295        7.2737459411      -17.6939635214
 H         7.9025687235        6.9632585667      -17.2037263759
 H         7.4684120302        6.1565640016      -18.6891733688
 H        12.0063373359        3.7908245823      -17.3622551285
 H        11.3481348334        2.3291678167      -17.0458326125
 H        12.3081502035        3.8960804211      -14.5582359461
 H        13.2291888511        2.6146220032      -15.4930774385
 H         9.3950918667        2.1679834613      -12.7738669361
 H         9.0796593878        1.0913791742      -11.3032337859
 H         8.7187931856       -0.7692030993      -12.4737080575
 H         9.0412791750        0.0170430476      -14.1042336154
 H         6.0710987142       -2.1469881944      -15.3436830856
 H         6.0727602392       -0.9977229885      -16.8528644090
 H         4.6329088445       -1.4903946289      -16.0605270581
 H         5.6988773623       -2.5096439472      -13.5072220837
 H         6.4960523266       -1.9719134710      -12.1126575322
 H         7.2679937964       -2.0412186815      -13.6852166950
 H         5.2410812732        0.8474284495      -11.6715684122
 H         3.9416231599       -0.2527052457      -12.2631939419
 H         4.1968716574        1.2264031520      -13.0359251836
 H        14.2192512269        1.4971047934      -13.4624280634
 H        13.4637388786        0.0938955480      -13.9200445143
 H        13.6872590353        0.3159806181      -12.2284165414
 H        13.1500845994        3.5523935657      -12.8418968202
 H        12.8499173966        2.8221777159      -11.3447794767
 H        11.4555558001        3.5199749268      -12.0889463518
 H         7.8830899473        2.1426624166      -16.5747517038
 H         9.4003109358        1.6925414751      -17.5244977299
 H         7.8575683350        2.3590854429      -18.3700260078
 H         9.9605142179        5.2515602625      -18.7845415265
 H         8.7085275859        4.4503686712      -19.5910725301
 H        10.2659096592        3.5008899866      -19.3109083353
 H         2.0135296462        4.0751961103      -19.2385262980
 H         2.9479010026        3.0022693101      -18.2785824246
 H         3.5935813730        3.8868950555      -19.7873267418
 H         2.7059265583        6.5333307049      -19.4463814524
 H         3.3463691182        7.2072000282      -17.8998573458
 H         1.8404245686        6.4713791582      -17.8987879742
 H         2.1746870986        7.7847340509      -11.2256934901
 H         2.1740421239        7.1978248432      -12.9453240161
 H         3.5546554033        8.0178243952      -12.3557200828
 H         5.6516724410        6.8274736685      -11.8740170940
 H         5.4554305930        5.3932046462      -10.9733086064
 H         4.8741414848        6.9637773059      -10.2334748629
 H         0.1906795759        3.0678406455       -7.1253918688
 H         0.5558802196        1.2910760831       -6.5696964909
 H        -1.0532934656        1.8806941029       -7.2402617915
 H        -0.7251021006       -0.4380720797       -8.6182692272
 H         1.0291223377       -0.6664618043       -8.4765317913
 H         0.3611095418       -0.3337781184       -9.8865602272
 H        -7.3221305115        2.7149156347      -10.3016099098
 H        -6.8417444196        3.7218102163      -11.6834317309
 H        -7.6512916432        4.4976986139      -10.3601476563
 H        -4.5974776152        5.1171810574      -11.4376877478
 H        -4.0860848687        5.3676168000       -9.7500975279
 H        -5.6653359240        5.9385372445      -10.3336477372
 H       -11.2466315456        2.6896080432       -4.9904025673
 H       -10.5934199181        2.9990895732       -6.5424563119
 H        -9.9581285171        3.7591174109       -5.0191464627
 H        -9.2768430827        1.4591344066       -3.1083466781
 H        -9.1922552135       -0.0902310475       -3.9498668937
 H       -10.6671912398        0.6874554639       -3.6852085438
 H       -12.6639903797       -2.6039140073       -9.5750003034
 H       -13.9396995301       -3.5171886302       -8.8862773737
 H       -12.4389687579       -4.2591406177       -9.1987213301
 H       -14.0450560648       -1.3003863547       -7.3858912119
 H       -12.4646182690       -0.8731320913       -7.7759935827
 H       -12.8090319871       -1.2448554002       -6.0288803493
 H       -15.4783069755       -7.3238921553       -7.9727109653
 H       -16.1293167478       -6.1828014043       -6.7265332958
 H       -17.2346058869       -7.4364972880       -7.3021067470
 H       -15.8528134261       -8.6137508546       -3.8184223867
 H       -17.2147460252       -8.3891553088       -4.6266661311
 H       -16.3318922211       -6.9161151003       -4.3829849366
 H       -12.6511071800      -13.4948806458       -8.6673034053
 H       -13.9643950008      -13.7984319434       -9.8808088058
 H       -13.2407162688      -15.1538787890       -8.8657037161
 H       -16.4217554938      -14.9943107966       -7.0825046015
 H       -15.2122054132      -16.1033767988       -7.8815357013
 H       -16.2678917199      -14.9263114576       -8.7339544190
 H       -13.3662823406      -15.4665274562       -1.5747842769
 H       -14.0904077680      -17.0100562703       -1.8118302742
 H       -14.6803567172      -15.9399701538       -0.4227430157
 H       -17.5600982156      -15.5227661290       -2.6252624007
 H       -16.9560161681      -16.5353216869       -1.4126405567
 H       -16.7002756109      -16.9892893696       -3.1213770103
 Na      -15.5017900244      -12.5538776188       -4.9504363171
 Na        5.6186836464        3.0976059212      -14.9045059360
