232

 C       -21.7315856938       -7.7093555349       -3.3337519779
 C       -20.7209684575       -6.5581309848       -3.5186878076
 O       -19.7441956442       -6.5292170837       -2.8405128912
 C       -21.0257683842       -5.5198130337       -4.6703911346
 C       -20.3052786073       -4.1741938696       -4.4123130969
 O       -20.1745234068       -3.7298551517       -3.2737548575
 C       -19.9030468464       -3.2519428872       -5.5351676121
 C       -18.6761550188       -3.7472128750       -6.3845799256
 C       -17.4690166825       -4.1526570462       -5.5195727100
 O       -17.5070534163       -5.2756241349       -5.0798358409
 C       -16.2711995379       -3.2119460863       -5.2043827157
 C       -16.5882554589       -2.8372267799       -3.7287315674
 O       -17.7532953264       -2.5864690988       -3.4327526680
 C       -15.4548694839       -2.5989945020       -2.7659761218
 C       -15.9558320712       -2.4952319609       -1.2602358727
 C       -16.0145400987       -3.9517711071       -0.5582466035
 O       -16.8105181807       -4.7772485867       -0.9976380338
 C       -15.3780456093       -4.2035613299        0.8019772112
 C       -13.8563000723       -4.8578925890        0.3440041346
 O       -12.9647044170       -4.0308715573        0.1952812704
 C       -13.7390143626       -6.3288416426        0.2347172708
 C       -12.4077890811       -6.7603334787       -0.3544225930
 C       -12.3265703834       -6.5446182085       -1.8461389189
 O       -12.7333384665       -5.5333065297       -2.3893099420
 C       -11.6197958829       -7.6914637399       -2.8028706902
 C       -10.1226182057       -7.0680429893       -3.1795706354
 O        -9.4605663661       -6.7959382331       -2.1566424887
 C        -9.6040834481       -7.1518014171       -4.5706279589
 C        -8.0444202701       -7.2781651926       -4.5968091227
 C        -7.4243424748       -5.9087112011       -4.8472910257
 O        -8.0169436400       -5.0600960092       -5.5040610049
 C        -5.9889617117       -5.5504636758       -4.2110944315
 C        -4.9582428683       -5.9918190287       -5.2312195177
 O        -4.7605324112       -7.2100687096       -5.3346259807
 C        -3.9695777778       -5.0854128974       -6.0336145751
 C        -2.9346314093       -4.3707143494       -5.1267045766
 C        -1.9744050811       -3.5092270731       -6.0199987418
 O        -2.3474452613       -2.5125682989       -6.5772334055
 C        -0.4335658232       -4.0003247250       -6.3479334542
 C        -0.3326024160       -5.1607946500       -7.3609928215
 O         0.0819680782       -6.2663019856       -7.1006820014
 C        -0.9115455040       -4.8554618143       -8.8093918135
 C        -0.1710762644       -5.4773341455       -9.9457407249
 C         1.1278268401       -4.8342293740      -10.5831370957
 O         1.3229191733       -3.6222382048      -10.3119534282
 C         1.9406160045       -5.6008383680      -11.8308770413
 C         1.6759913049       -4.5510555690      -12.9726911224
 O         0.6619434468       -4.5210643703      -13.6736326773
 C         2.6263394533       -3.4127009456      -12.8444487848
 C         2.6561983469       -2.5733225424      -14.1516104520
 C         3.0194788624       -1.1335322885      -13.8410393394
 O         2.1483478377       -0.3172429584      -13.7348758112
 C         4.4912808744       -0.6783834323      -13.6489631178
 C         4.7928999522        0.6517189636      -14.3564270134
 O         5.7374815268        0.7739919606      -15.1484898108
 C         3.7995296475        1.8472259119      -14.2606410032
 C         4.1277894145        2.9547779375      -13.3179451120
 C         5.4631749406        3.6246324173      -13.6683631756
 O         6.1529721901        3.1848847094      -14.5439263374
 C         6.1068786580        4.8040072913      -12.6768777010
 C         6.8700212252        5.9071320564      -13.3247828800
 O         6.7699202595        7.0207225085      -12.8230275529
 C         7.5801892250        5.7239940190      -14.7885799714
 C         6.7822300036        6.6309028130      -15.7353193100
 C         6.5528531178        6.1573370671      -17.1656238288
 O         6.3650850247        4.9570726883      -17.3786952205
 C         6.3759889153        7.1400979761      -18.3869662186
 C         7.4510286309        6.6916251337      -19.5873776099
 O         8.4005188376        6.0979318224      -19.1662630225
 C         7.2964353649        7.4114901156      -20.8897156140
 C         8.2243622372        6.7017510030      -22.0013129107
 C         7.7895912537        5.3058269136      -22.3302290882
 O         6.6485143995        4.9008872020      -22.2809492365
 C         9.0026100992        4.3803550228      -22.9653058272
 C         9.1768125598        3.1184253378      -22.2473846004
 O         9.1248010629        2.0626078648      -22.8132406992
 C         9.5389974914        3.1146008539      -20.7086409314
 C         9.3758853780        1.6441389427      -20.2143097089
 C         8.4893199166        1.4401042533      -18.9616610406
 O         8.2462467691        2.3117198694      -18.1884444129
 C         7.5897498480        0.1414933822      -18.8649889259
 C         6.0655089856        0.7054630039      -19.2067222152
 O         5.4725523932        1.5495877332      -18.5746215991
 C         5.3224454063        0.3156312298      -20.6019290466
 C         8.0605914026       -0.9441892779      -19.8675942048
 C         7.4613270888       -0.3610961620      -17.4226984605
 C         8.7067981124        4.3618550327      -24.4862019747
 C        10.3304038759        5.1612153248      -22.8042263022
 C         4.9408322165        6.8935862534      -18.9407057487
 C         6.6181268412        8.5465731093      -17.9024098270
 C         5.0704395964        5.5853480738      -11.6630493414
 C         7.1525488626        4.1275524139      -11.8936162367
 C         4.7692992709       -0.5838698228      -12.0783821465
 C         5.5392943038       -1.8607419065      -14.0528515793
 C         3.2732416450       -6.0976829158      -11.2266069596
 C         1.1381434691       -6.8704022835      -12.1955286118
 C         0.2329962173       -2.6681301803       -6.8771311116
 C         0.2517550578       -4.5607423564       -5.0631086469
 C        -6.1828336356       -4.0051727162       -3.8947219381
 C        -5.7373132317       -6.2756960937       -2.8071595012
 C       -11.1530354647       -9.0634522643       -2.1943517024
 C       -12.6338437342       -7.9846817162       -3.8868239436
 C       -14.9529730795       -2.9188832158        1.6195236962
 C       -16.2373333396       -5.2004023889        1.7200475934
 C       -15.0036471950       -4.0864143564       -5.3732276383
 C       -16.2415522104       -1.8186809145       -5.9577403591
 C       -20.7620808901       -6.1802721940       -6.0376350713
 C       -22.5933137069       -5.1155014929       -4.5991118872
 H       -22.6278989314       -7.4107565111       -2.7780794383
 H       -21.2571126235       -8.4712673400       -2.7895292645
 H       -21.8722917859       -8.1175671892       -4.3371389131
 H       -19.7310351474       -2.2651466105       -5.1608458293
 H       -20.7054631014       -3.1074125456       -6.2689561370
 H       -18.3274421114       -2.9467645516       -7.0380128508
 H       -18.8850975183       -4.5813174377       -7.0088505696
 H       -15.0410837277       -1.5849296507       -2.9907215454
 H       -14.6213665139       -3.2490922904       -2.9241912300
 H       -16.9218726323       -2.0429293359       -1.2815089528
 H       -15.2085147239       -1.7854384838       -0.6787540609
 H       -14.6118682560       -6.6888210093       -0.3582327412
 H       -13.7809961061       -6.7422266382        1.2409370226
 H       -12.1913298701       -7.7624435246       -0.0536518098
 H       -11.5555050539       -6.2126206871        0.1912737109
 H        -9.7959639034       -6.2364285770       -5.0832506303
 H       -10.1224765378       -7.9352126257       -5.1362613085
 H        -7.7271693489       -7.9794290784       -5.4325068304
 H        -7.6837254424       -7.6809882891       -3.6987502471
 H        -4.4666121272       -4.3891204668       -6.6318733208
 H        -3.4680256588       -5.7880186813       -6.6044518259
 H        -2.4202005292       -5.0311031060       -4.3736052546
 H        -3.6041585416       -3.6294016119       -4.5916028361
 H        -0.9733422911       -3.8026450131       -8.9795524022
 H        -1.9510812127       -5.3116633967       -8.9339431007
 H        -0.8512953474       -5.4792059723      -10.7223325578
 H         0.0460379919       -6.5262821082       -9.7547653344
 H         3.5906051954       -3.7980673466      -12.6665209162
 H         2.3979531673       -2.7478340502      -11.9975266185
 H         1.6456225116       -2.6707295409      -14.5773875379
 H         3.2840581880       -2.8686653601      -15.0445179272
 H         2.7207438198        1.6129763768      -14.0128059787
 H         3.6947262465        2.2175155629      -15.3002047687
 H         4.2296746902        2.5575985178      -12.3197317481
 H         3.2833843923        3.6510350511      -13.1790212353
 H         7.5737204710        4.6862503577      -15.0404479187
 H         8.6326075343        5.9540565921      -14.7153841417
 H         7.1511824768        7.6452952742      -15.5880182280
 H         5.6098994293        6.6319063710      -15.3112138699
 H         7.7712009488        8.4147493840      -20.7499984341
 H         6.3170434325        7.7238845923      -21.1643594358
 H         9.2294136660        6.6984936000      -21.6165488894
 H         7.9849169516        7.3037198954      -22.9258606725
 H         8.9450208337        3.6637145555      -19.9735878544
 H        10.6002017422        3.3377155605      -20.7381450997
 H        10.3272735589        1.2551709270      -20.0063740355
 H         9.0077346612        0.9978690985      -21.0358656469
 H         5.2161711856        1.2261646082      -21.1800545308
 H         4.2851061780       -0.0016010614      -20.5323055144
 H         5.8064680972       -0.4339768772      -21.2240408712
 H         7.5388161868       -1.8254228178      -19.5250170782
 H         9.1590452507       -1.1440479813      -19.5990474747
 H         7.9501661089       -0.7791032391      -20.9393891792
 H         8.3106883392       -0.9370085740      -17.1138054435
 H         6.4956141237       -0.8798206570      -17.3502177673
 H         7.5499534829        0.4684862981      -16.7231566728
 H         9.1285957644        3.4824413849      -25.1151920661
 H         9.3167770349        5.1849812247      -24.9022189718
 H         7.6312675886        4.4384816563      -24.7219578805
 H        11.0551600918        4.5066625765      -23.2329512123
 H        10.6834860114        5.2606828746      -21.8473352865
 H        10.4481082248        5.9576341569      -23.4535978332
 H         4.3032693986        6.5853772907      -18.1401944430
 H         5.0677745401        6.0471600209      -19.5991910151
 H         4.6348946353        7.7762841260      -19.5811559899
 H         7.6415207845        8.7988060833      -17.5195455127
 H         6.0438483634        8.6719249158      -17.0389286918
 H         6.2955863449        9.3932391751      -18.5545799057
 H         5.2393563370        6.5956185178      -11.3988638977
 H         5.0178427070        5.0751255014      -10.6514241493
 H         4.0176353835        5.6399498923      -11.8879323701
 H         6.7344510113        3.3593973521      -11.2282924312
 H         7.5881060196        4.9862017182      -11.3437726259
 H         8.0302347604        3.7651483671      -12.4657062614
 H         5.5721401991        0.0837332737      -11.8523944805
 H         4.7558897265       -1.5880540675      -11.6145040557
 H         3.8732935537        0.0157451449      -11.6009246240
 H         5.0605989799       -2.7957501499      -13.9315111958
 H         6.3984542988       -1.7605394068      -13.3810548465
 H         5.8256196475       -1.6219781236      -15.0751397810
 H         3.1188676224       -7.0505226582      -10.6027860316
 H         3.7699871489       -5.2982095825      -10.7183851578
 H         4.0167114974       -6.3416416493      -11.9942679413
 H         0.1469428026       -6.7282014594      -12.6655505381
 H         0.9434544770       -7.5418705632      -11.3442691061
 H         1.8570983255       -7.4702154871      -12.7009597330
 H         0.2365806085       -1.8575548035       -6.1494889952
 H        -0.4049231271       -2.2738097484       -7.6602858820
 H         1.1815992311       -2.8996160422       -7.2543939546
 H        -0.4898088548       -5.0559699939       -4.5226946595
 H         0.7477134193       -3.8318187074       -4.3815766890
 H         0.8432655188       -5.3586838491       -5.4892608979
 H        -6.3721742043       -3.4914930936       -4.7878426997
 H        -5.2801731363       -3.6050908236       -3.5668288857
 H        -6.9751997119       -3.9196820689       -3.1781331549
 H        -6.5497907410       -6.2051607558       -2.0990324861
 H        -4.8202467931       -5.8937368792       -2.3806636407
 H        -5.6422146530       -7.3824413778       -3.0818588806
 H       -12.0863788589       -9.5401953058       -1.8104746420
 H       -10.3967052750       -8.9678302386       -1.4936315251
 H       -10.7213323814       -9.6685340512       -3.0011128683
 H       -13.5807449022       -7.7983198983       -3.4221944776
 H       -12.4752891377       -8.8506362200       -4.5269236425
 H       -12.5989787188       -7.1850441724       -4.5644340758
 H       -13.8887781183       -2.7342019029        1.2342389004
 H       -15.0351296453       -2.9624371758        2.6638655426
 H       -15.5028565378       -2.0373526342        1.2833369565
 H       -15.7026638967       -5.9633698349        2.2006864862
 H       -16.9276656973       -5.7400514463        1.1045260812
 H       -16.8690072665       -4.6389283528        2.3465682732
 H       -14.8106196304       -4.7008148908       -4.5034141839
 H       -14.1954321062       -3.4136127880       -5.6345670751
 H       -15.2174113384       -4.9197755315       -6.0597446401
 H       -17.0968255534       -1.3290607160       -6.0307634076
 H       -16.0906106472       -1.9749709573       -7.0040287483
 H       -15.5514324131       -1.0516965260       -5.6391211975
 H       -19.6185808513       -6.2163712449       -6.2494968129
 H       -21.2203106650       -5.5359652122       -6.8339991187
 H       -21.2170557405       -7.1759548513       -6.0590062136
 H       -22.6382187579       -4.1516455115       -5.0634261364
 H       -23.0741831595       -5.1815862867       -3.5934837901
 H       -23.2699162883       -5.7275103348       -5.2724782806
 Na      -18.3643637561       -4.8962794477       -2.5924282678
 Na        6.4027947572        2.6778710207      -16.8277719934
