232

 C        -6.4036841259        1.2422951534      -12.7211285224
 C        -5.7141522488        2.6105382493      -12.5623026303
 O        -4.6277306913        2.6224993467      -11.9876637997
 C        -6.4750860527        3.9749070664      -12.7285616411
 C        -5.5502614375        5.2671354945      -12.7826919413
 O        -5.4078808705        5.9530882317      -11.7910974970
 C        -4.8644362512        5.5881973926      -14.1121941914
 C        -3.7702900253        6.6883517931      -13.8674066313
 C        -2.4821275906        6.1084470536      -12.8950551310
 O        -2.3108965189        4.9385990262      -12.7644928926
 C        -1.4793571578        7.1616211350      -12.1978655452
 C        -1.8812990442        7.2311981839      -10.7413319874
 O        -2.0316339058        6.2646524183      -10.0622343617
 C        -2.0172915046        8.5867205920      -10.1101022324
 C        -2.8637566655        8.5367194504       -8.8207948617
 C        -4.2058320549        7.7328254570       -8.8800700076
 O        -4.3961898401        6.8973551176       -9.7217736027
 C        -5.1757519443        7.9517617464       -7.5933419104
 C        -5.3078581358        6.5391342750       -6.8796334051
 O        -4.5249062297        6.2548265631       -5.9785423580
 C        -6.3882060176        5.5510260733       -7.4192464701
 C        -6.8546084122        4.4997518313       -6.3951611062
 C        -7.7039430661        3.4165285638       -7.0928850871
 O        -8.3211506421        3.6587491300       -8.1101752614
 C        -7.8231405313        2.0055060098       -6.3149312965
 C        -6.3610820319        1.4142466278       -6.3131020665
 O        -5.6219687429        1.6973821197       -5.3694762580
 C        -5.7822104516        0.7642428353       -7.6102937038
 C        -4.2752073186        0.7972197050       -7.5634585794
 C        -3.7808301173        2.2053044666       -8.0030386275
 O        -4.5109290876        2.9620874604       -8.6621844716
 C        -2.2066468946        2.6363028966       -7.6045435327
 C        -1.3792295835        2.5114641875       -8.9039702214
 O        -1.7013402599        3.1074713100       -9.8644224946
 C        -0.2927048130        1.3718866073       -8.9399817655
 C         0.2439881385        0.8671925015      -10.2240060972
 C        -0.4769722765       -0.4255279138      -10.7639828471
 O        -1.5791404573       -0.7128957386      -10.3429694029
 C         0.2806612395       -1.2211878467      -11.8261694282
 C         1.4568217771       -1.9854714750      -11.0620400206
 O         2.4233913729       -1.3347754162      -10.6875982807
 C         1.3094076202       -3.3885323695      -10.4959118063
 C         2.2714934155       -3.8397217246       -9.3825748727
 C         2.0047255699       -5.2860548209       -9.0101044866
 O         1.0068348925       -5.8446371143       -9.3741312101
 C         2.9075374837       -5.9141541147       -7.9712066614
 C         3.3387303291       -7.3277875638       -8.5834527147
 O         2.4887518002       -8.1105977157       -9.0168582070
 C         4.8206658517       -7.7579898129       -8.6241424255
 C         4.9836427495       -9.1252668575       -7.9620423814
 C         4.7058321282       -9.0689568528       -6.4737528667
 O         4.7350191243       -8.0197281441       -5.8261935609
 C         4.1771307880      -10.3314269147       -5.7034215251
 C         2.7853676222      -10.7133905956       -6.3201260095
 O         2.5608883056      -10.7900059093       -7.5300808983
 C         1.6366772304      -11.0926774879       -5.3667562516
 C         0.3515354345      -11.6373120089       -6.0603474481
 C        -0.2182682420      -10.5493931916       -7.1148684579
 O        -0.0992182097       -9.3649423058       -6.7751743752
 C        -0.8273570184      -11.1179652694       -8.4251074246
 C        -1.5945165077       -9.9688542033       -9.2170004922
 O        -0.9831827942       -9.2660761054      -10.0530691212
 C        -3.0114625145       -9.6917621696       -8.8513267395
 C        -3.5271318918       -8.4749999127       -9.4959971270
 C        -2.6219856027       -7.2058177324       -9.3848033981
 O        -1.9584753011       -7.0568879209       -8.4692192049
 C        -3.0850216387       -6.0047195872      -10.3682598726
 C        -4.0749975094       -6.3620301871      -11.5825707563
 O        -4.9112106097       -7.2516920417      -11.3846772209
 C        -4.1489198393       -5.4983593653      -12.8620493125
 C        -5.2139375470       -6.1775719643      -13.7177022433
 C        -5.5565786698       -5.2890810899      -14.8729688089
 O        -4.7018103864       -4.8908320548      -15.6195424675
 C        -7.0705429830       -5.1382487893      -15.2954768626
 C        -7.7382169815       -4.2069274778      -14.2062361782
 O        -7.1824146334       -3.9094173873      -13.1601281673
 C        -9.1966456255       -3.7735863391      -14.4653857583
 C        -9.5047321752       -2.2655636966      -14.3753407244
 C       -10.8139646389       -2.0445599909      -15.2006907417
 O       -11.4982812672       -2.9135744978      -15.7403701561
 C       -11.2670849162       -0.5260227405      -15.3855219150
 C       -10.9097978225        0.3797695594      -14.1441150995
 O        -9.7417109638        0.6439463062      -13.9415503972
 C       -11.9060093403        0.8968897820      -13.1128966814
 C       -10.6288142755        0.0776799898      -16.6393535028
 C       -12.7774163700       -0.4275692263      -15.6296422540
 C        -7.1978911394       -4.5349685765      -16.7125589034
 C        -7.7121945833       -6.5685009085      -15.2301335908
 C        -3.6593020380       -4.7718456419       -9.7036909759
 C        -1.7928445563       -5.5867195636      -10.9177929762
 C         0.2328782803      -11.8631283008       -9.3043848845
 C        -1.9021196081      -12.0475900580       -7.8749018809
 C         5.1091034823      -11.5045874641       -6.0865999690
 C         4.0873928021      -10.1362431589       -4.1890475361
 C         4.2381919510       -4.9780781761       -7.5864495191
 C         2.1040570578       -5.8957509972       -6.6667115358
 C        -0.5686482249       -2.0390509206      -12.7105512555
 C         1.0210136578       -0.0858222149      -12.7118974250
 C        -2.3329631499        4.1574780343       -7.3140938774
 C        -1.6496580487        1.9387852579       -6.3754691401
 C        -8.3912610309        2.2708556698       -4.8355443506
 C        -8.7374813255        1.0906535116       -7.0584949194
 C        -4.5196092841        8.9493093137       -6.5592485280
 C        -6.4846765634        8.5573335058       -8.0380882872
 C        -0.0444258167        6.5201482453      -12.1190710422
 C        -1.3776872643        8.4569625394      -12.9779205750
 C        -7.3826727453        4.0608230371      -13.9317878144
 C        -7.4520007586        3.8715654767      -11.5248388910
 H        -6.0083564094        0.8619587252      -11.8275316445
 H        -5.9816991151        0.7822806369      -13.5609547857
 H        -7.4738382202        1.3137187964      -12.7223564183
 H        -5.5905911601        6.1037635540      -14.8605813516
 H        -4.6060613765        4.6469975105      -14.5887226813
 H        -4.1959152458        7.4627746564      -13.2239373264
 H        -3.3861652040        7.1387924730      -14.7671748617
 H        -2.5476634246        9.1026328321      -10.8515584197
 H        -1.0771557965        9.0945272247       -9.9810646914
 H        -2.9415300913        9.6042630663       -8.4919907602
 H        -2.1414075999        8.0021529544       -8.1146886662
 H        -6.1501072839        5.0830239417       -8.3901873275
 H        -7.2664696301        6.0475334201       -7.7193364808
 H        -7.5071968856        4.9564398480       -5.7213758018
 H        -5.9348248927        4.0152351671       -5.8842079743
 H        -6.1458062871        1.2724409578       -8.5357016065
 H        -6.1548645328       -0.2730486606       -7.6785825972
 H        -3.7521758089        0.2421425426       -8.3308822378
 H        -3.9747513277        0.6018149597       -6.4993683121
 H        -0.5540042936        0.4723629754       -8.4528170790
 H         0.4928382205        1.8486133318       -8.2836311552
 H         1.3674761071        0.6903444765      -10.1278008535
 H        -0.0222891118        1.6650093095      -10.9162405164
 H         1.4356427231       -4.0627380808      -11.3972565448
 H         0.3095947863       -3.5378412896      -10.1825644485
 H         2.0005495783       -3.3346437769       -8.4606872713
 H         3.2458901254       -3.6122864891       -9.6974297730
 H         5.5510964318       -7.1319063838       -8.0227640019
 H         5.0971676130       -7.7723139947       -9.6918063822
 H         6.0060615625       -9.4447158128       -8.0799508350
 H         4.2379583339       -9.8734285230       -8.2771852556
 H         1.4245746032      -10.2288408908       -4.8320019567
 H         2.0501789430      -11.7458234010       -4.6509924140
 H        -0.3009618113      -11.6333617899       -5.1655020424
 H         0.5635393098      -12.6282585316       -6.5437484255
 H        -3.0761101176       -9.5156197223       -7.7614833562
 H        -3.7281288399      -10.5370659618       -9.0494723033
 H        -4.4392449250       -8.1121615692       -8.9678789920
 H        -3.7123862320       -8.7322018551      -10.6487245064
 H        -3.1928374785       -5.4257038087      -13.2744866944
 H        -4.4763593436       -4.5255295417      -12.7427382849
 H        -6.1585432171       -6.3991251424      -13.1915839254
 H        -4.8560340981       -7.0907367626      -14.1007842466
 H        -9.7351379480       -4.2633703955      -13.7251340277
 H        -9.4945168070       -4.1790067032      -15.3778759373
 H        -8.6896035343       -1.5728821515      -14.7658206392
 H        -9.7462876513       -1.9625332839      -13.4398381972
 H       -11.4948897965        1.8428904620      -12.7989946230
 H       -11.7758116667        0.1062058620      -12.3472417510
 H       -12.9691259992        0.9969307760      -13.4744077202
 H        -9.6923389659        0.6927521890      -16.4328746869
 H       -11.3099265751        0.6824573497      -17.2196489967
 H       -10.3319078431       -0.6497092692      -17.3575215430
 H       -13.2547122360       -0.8704582381      -14.8245391132
 H       -13.1707580403       -0.9036193266      -16.5555182377
 H       -13.1401152585        0.6270012298      -15.6423361248
 H        -8.2411641605       -4.5580085430      -16.9471006441
 H        -6.8913436877       -5.2637555146      -17.4897712816
 H        -6.6567543716       -3.6749342682      -16.9671686122
 H        -7.9014309925       -6.9355237605      -14.1927842527
 H        -7.0805830005       -7.3260979597      -15.7737428196
 H        -8.5933865659       -6.6043791789      -15.7905307308
 H        -4.0337839880       -4.9233061090       -8.6784507372
 H        -4.4892080730       -4.3986599732      -10.2839366021
 H        -2.9006961927       -4.0215663409       -9.6474138399
 H        -1.1095911883       -5.3438811908      -10.1438647624
 H        -1.9575139802       -4.8309557732      -11.6858837229
 H        -1.2480371022       -6.4639455289      -11.3871139606
 H         0.9336548358      -12.5341759063       -8.8177975564
 H         0.7377210435      -11.1002938237       -9.8448492098
 H        -0.2465131692      -12.4662757411      -10.0564089192
 H        -2.5107145540      -12.4444812961       -8.7665710457
 H        -2.5201468665      -11.4094773705       -7.2209304234
 H        -1.3594387913      -12.8561837947       -7.3051121444
 H         4.8789975320      -12.0004454699       -7.0545482192
 H         5.0975985595      -12.2787614820       -5.3199582463
 H         6.1163404974      -11.1241090638       -6.1005511528
 H         5.0351621035       -9.7566938170       -3.7597225630
 H         3.8466354797      -11.0195496464       -3.6208770545
 H         3.4299233236       -9.3021157091       -3.9023026790
 H         4.8463040152       -5.2861469868       -6.7236131483
 H         3.9459547430       -3.9987859042       -7.2248192683
 H         4.7011250441       -4.8026839132       -8.5377878823
 H         1.0602834183       -6.2883246339       -6.7397431459
 H         1.9719164758       -4.8694414881       -6.3482325599
 H         2.5842872340       -6.4846443464       -5.8308115708
 H        -1.2079529543       -1.4331475770      -13.4106639061
 H        -1.3582066917       -2.5518977296      -12.2340935521
 H         0.0617939988       -2.9027993114      -13.1222693170
 H         2.0859342286        0.0573656227      -12.3975966777
 H         0.3393284536        0.7546857248      -12.6483195707
 H         1.1048991576       -0.1533753162      -13.7824129110
 H        -3.0729026435        4.4000544808       -6.5831502011
 H        -2.7801482255        4.6497958261       -8.1982521724
 H        -1.4581839639        4.7720215370       -7.0363780176
 H        -0.8690344182        2.4568414850       -5.8292197659
 H        -1.1432472580        1.0121488534       -6.6912510188
 H        -2.3346096172        1.6849999830       -5.5716863700
 H        -9.3305398201        2.7162136436       -5.0094572871
 H        -7.7384913012        2.7770198261       -4.2278790610
 H        -8.4748520060        1.3021042089       -4.3270645558
 H        -8.5136215724        0.9182528369       -8.1253112436
 H        -9.7263626393        1.5678501142       -6.9508958650
 H        -8.7940267745        0.0733695151       -6.7546101962
 H        -3.8197380626        8.4492331201       -5.9660376717
 H        -5.3873222626        9.3231064002       -6.0292487137
 H        -4.1485671393        9.8619487688       -7.0908789327
 H        -7.0374360412        7.7803476556       -8.6656675837
 H        -6.3873114274        9.4084886748       -8.6806886167
 H        -7.1689304426        8.9334346539       -7.2049749812
 H         0.5601435956        6.8446384980      -11.2409418313
 H         0.5152268951        6.7858533350      -13.0270997875
 H        -0.1980942536        5.4784485664      -11.9904626482
 H        -2.3530342483        8.8964745885      -13.0900642600
 H        -0.9869323804        8.2284003002      -14.0337398653
 H        -0.6957025626        9.0754246368      -12.4165727680
 H        -6.9534372598        4.0132558288      -14.9004853244
 H        -7.7646165013        5.0711153713      -14.0015052386
 H        -8.1210051388        3.2988628284      -14.0126026722
 H        -8.0757093847        4.8137980064      -11.3434225333
 H        -6.8016047222        3.6619156792      -10.6959728294
 H        -8.2447539888        3.0749970937      -11.7266964803
 Na       -3.7880387677        4.4427898524      -10.8543483828
 Na       -0.0050970717       -7.7758445762       -8.6089730733
