232

 C        -6.4575176337        1.2820953141      -13.3624248533
 C        -5.8979654059        2.7088111959      -12.7379731416
 O        -4.8702029990        2.6890910158      -12.1090666517
 C        -6.6538266658        4.0883495925      -12.8448950891
 C        -5.5844820122        5.1936712067      -12.8767988794
 O        -5.2987968836        5.8375348876      -11.8796076014
 C        -4.7403582557        5.3748408028      -14.0803842237
 C        -3.7567757892        6.4888807931      -13.8181190357
 C        -2.5546503762        6.0102076454      -12.7453596967
 O        -2.4330752834        4.7606315735      -12.5259295768
 C        -1.4591259911        6.8789616185      -12.2104142884
 C        -1.8212996265        7.0267234015      -10.6091345384
 O        -1.9790016929        6.0847030282       -9.9139091473
 C        -2.0314569289        8.5362096522      -10.1683063897
 C        -2.6254783011        8.5958616457       -8.7058351154
 C        -4.0474277122        8.0275955140       -8.7851442746
 O        -4.4407709998        7.5160700617       -9.8151345899
 C        -5.1104931592        8.1688545511       -7.6203967505
 C        -5.0358211168        6.6292227820       -7.0670207117
 O        -4.0962351984        6.2115626333       -6.4047328261
 C        -6.0165006797        5.6077779663       -7.5891755201
 C        -6.3056027388        4.4454999473       -6.4851506208
 C        -7.4237953096        3.5008567110       -7.0306266499
 O        -8.1833691345        3.8414746747       -7.9158490846
 C        -7.5212450709        1.9938501317       -6.3716212772
 C        -6.1002954202        1.4352796611       -6.3602707880
 O        -5.3450703331        1.6303233137       -5.3962616279
 C        -5.5612177572        0.7164900243       -7.5542093302
 C        -4.0461477542        0.8409831895       -7.7182427369
 C        -3.6581996556        2.3249307618       -8.0362770998
 O        -4.3468169247        3.0180691693       -8.7843195232
 C        -2.1924668156        2.7971589320       -7.6018764686
 C        -1.4734950464        2.4192071484       -8.9317232306
 O        -1.8335217322        3.0131974625       -9.8650781756
 C        -0.3306072503        1.3938868282       -9.0415438325
 C         0.1422725657        1.1523870918      -10.5495417249
 C        -0.5393526680       -0.2687571826      -10.9308133039
 O        -1.4676112305       -0.7388483594      -10.3318322499
 C         0.2024189696       -1.3072053455      -11.9573581220
 C         1.2999009789       -1.8409326735      -10.9284309008
 O         2.0850764733       -1.0296642855      -10.4871200520
 C         1.1003540579       -3.2702723078      -10.4927632636
 C         2.2040811615       -3.7920683471       -9.6009712794
 C         1.8276688021       -5.1118014718       -9.0554610016
 O         0.9071469833       -5.6963237731       -9.5817629209
 C         2.5883972923       -5.7104341143       -7.8614523444
 C         3.1343583255       -7.0678621865       -8.3663324653
 O         2.3586275837       -7.9912223990       -8.5416655562
 C         4.5882266576       -7.4202917116       -8.6452536790
 C         4.7777752351       -8.8704382546       -8.0517861304
 C         4.4531343623       -8.9089590956       -6.5396849068
 O         4.2357809423       -7.8451569665       -5.9410448574
 C         4.2332029146      -10.2994458099       -5.7518977534
 C         2.8373693310      -10.7921782663       -6.2976761543
 O         2.7602004134      -11.0747748991       -7.4960121541
 C         1.5602189131      -10.9070276696       -5.2989809555
 C         0.3142239650      -11.5503957574       -6.0380013214
 C        -0.0785023379      -10.6337749831       -7.2080008277
 O         0.1518390978       -9.4354042346       -7.0760119229
 C        -0.7959250423      -11.2748779922       -8.4469782157
 C        -1.6297742813      -10.1623038189       -9.1805476615
 O        -1.1646778668       -9.3100406287       -9.9495284133
 C        -3.1309773573       -9.9060624095       -8.8147216322
 C        -3.6940279503       -8.7509237622       -9.6567383667
 C        -3.0241958883       -7.3724443234       -9.2967267818
 O        -2.3368704180       -7.2893458561       -8.3060548851
 C        -3.3367141845       -5.9959582924      -10.1095934446
 C        -4.5170312689       -6.1821931785      -11.2080385123
 O        -5.4330894489       -7.0193515317      -11.1844829002
 C        -4.3832887838       -5.3612777011      -12.5636892076
 C        -4.9898231805       -6.2145799277      -13.6821805245
 C        -5.4458103309       -5.3964622917      -14.8900942251
 O        -4.6348647596       -4.7157442640      -15.4702433182
 C        -6.9530196849       -5.2163019110      -15.2846341224
 C        -7.6112884214       -4.2423033240      -14.2052854458
 O        -6.9221409047       -3.7872247218      -13.3229923164
 C        -9.1339054603       -3.9584376952      -14.2944704221
 C        -9.3560104283       -2.4222709549      -14.3251418250
 C       -10.6523237606       -2.0927462676      -15.0802654872
 O       -11.2532387976       -3.0385300484      -15.5755280499
 C       -11.2119557693       -0.5667326644      -15.2837775456
 C       -10.8409115006        0.4813359649      -14.2262955791
 O        -9.6782872346        0.6737889335      -13.9762975407
 C       -11.9018155356        1.2161930692      -13.3095840895
 C       -10.6887478700       -0.1807796566      -16.6500068788
 C       -12.7415283843       -0.7660919820      -15.3684050996
 C        -7.0590060622       -4.6241729542      -16.7432081788
 C        -7.7388495657       -6.6163080008      -15.1281292251
 C        -3.8036373205       -4.8123418788       -9.1444809755
 C        -2.0039058167       -5.6927364889      -10.8370980840
 C         0.3896581631      -11.6709673088       -9.3304152914
 C        -1.7590243587      -12.4646626564       -7.9928810591
 C         5.3082085243      -11.3530788970       -6.1125037829
 C         4.3713300695      -10.0129097114       -4.1720820662
 C         3.6928141838       -4.8006092113       -7.4035515249
 C         1.6665181057       -6.0359614762       -6.7006509909
 C        -0.8174042610       -2.3415105537      -12.5129894766
 C         0.8167862506       -0.4521372340      -13.0892372936
 C        -2.1376019186        4.3086553039       -7.3800060808
 C        -1.5654425648        2.0728172585       -6.4900380515
 C        -8.0635625060        2.0686165117       -4.9076826222
 C        -8.4381825481        1.1536159885       -7.2772355380
 C        -4.8158623163        9.0008203516       -6.3562560410
 C        -6.5044960940        8.4894757476       -8.1974912270
 C        -0.1083021233        6.0674341886      -12.3544956934
 C        -1.2405090837        8.2084174985      -12.9735250080
 C        -7.6151615987        4.0601504209      -13.9942025426
 C        -7.4002763168        4.2741293561      -11.5058033221
 H        -6.2543917251        0.6189093339      -12.5100125454
 H        -5.9010576061        1.0261216243      -14.2821532585
 H        -7.5354846968        1.4151702901      -13.5430061208
 H        -5.4510793111        5.6646892001      -14.8452258014
 H        -4.3026756817        4.4828198571      -14.4118658801
 H        -4.2544407107        7.3796990294      -13.4042139990
 H        -3.1502554363        6.7368937832      -14.6925486868
 H        -2.8666849096        8.9510180441      -10.8201783613
 H        -1.0754649489        9.1038776804      -10.4052965939
 H        -2.5128057703        9.5648405792       -8.3371717756
 H        -2.1129061599        7.8960253955       -8.0228367317
 H        -5.6614826071        5.2518980242       -8.6025897690
 H        -6.9852095751        6.0497536412       -7.8818576991
 H        -6.7093562289        5.0433285893       -5.6357832914
 H        -5.4190257358        3.9212367198       -6.0822841720
 H        -5.9858393370        1.1433499367       -8.4966613451
 H        -5.6792351636       -0.3310489874       -7.5826171723
 H        -3.8109754258        0.1814194808       -8.5756816230
 H        -3.5012598364        0.5903018704       -6.8024852849
 H        -0.6154326399        0.4356393144       -8.5635066185
 H         0.5024324402        1.8348096831       -8.4075251993
 H         1.1968024739        1.2087323067      -10.6007037527
 H        -0.3229096924        1.8937595634      -11.0942156260
 H         0.7996828281       -3.9778255878      -11.2431396998
 H         0.1473692238       -3.2168223853       -9.8575896675
 H         2.3468023443       -3.0903603880       -8.7411170939
 H         3.0584145503       -3.9942586416      -10.0741480569
 H         5.2349296717       -6.6932054055       -8.0910705084
 H         4.9142122640       -7.4968639957       -9.6936781205
 H         5.7620218693       -9.3057896380       -8.2255227784
 H         4.0054389586       -9.3998370368       -8.6229145146
 H         1.3728987647       -9.8540131692       -4.9700606766
 H         1.8379702416      -11.4302586643       -4.3658122930
 H        -0.5077544504      -11.5293880767       -5.3569640804
 H         0.5736937638      -12.4717139546       -6.3893708439
 H        -3.2227143997       -9.7746720877       -7.7696457080
 H        -3.7673355847      -10.7531794899       -9.0756002388
 H        -4.7104255965       -8.4105400094       -9.3692377146
 H        -3.5165888035       -9.0494271052      -10.7935353511
 H        -3.3538110170       -5.0723118496      -12.7998884856
 H        -4.9538755791       -4.3672413217      -12.3681825767
 H        -5.8257166082       -6.8457396687      -13.3295985117
 H        -4.1561644202       -6.8905610216      -13.9271945276
 H        -9.6110381616       -4.4071948089      -13.3446498572
 H        -9.4753243451       -4.5464369770      -15.1663895048
 H        -8.4854967609       -1.9732346075      -14.9381629698
 H        -9.3211276058       -1.9741197041      -13.3516809269
 H       -12.0201497788        2.1724148855      -13.7645583897
 H       -11.5638202102        1.2416686986      -12.3205177143
 H       -12.8223512738        0.6273730875      -13.3938604029
 H        -9.6083388581       -0.3704161519      -16.7472397535
 H       -10.8886560939        0.8210996261      -16.9529657643
 H       -11.1479093366       -0.7786795705      -17.4058740014
 H       -13.1506100460       -1.0997066626      -14.4798987577
 H       -13.0547140917       -1.5518531810      -16.1083134145
 H       -13.2125262241        0.1880022310      -15.6222459874
 H        -8.0693258901       -4.4120706301      -16.9899898061
 H        -6.5528087728       -5.1106845592      -17.6611394070
 H        -6.4539882799       -3.7061044260      -16.7600661422
 H        -7.6809590224       -6.9474613613      -14.0974085372
 H        -7.2628732261       -7.3369076468      -15.8315705161
 H        -8.7941046111       -6.7032977774      -15.3190022599
 H        -3.6201741225       -5.1467412053       -8.1017836315
 H        -4.9118814088       -4.7381477130       -9.2842034240
 H        -3.2623884709       -3.8863031033       -9.2328558382
 H        -1.0952379130       -5.5777996886      -10.2417516171
 H        -2.0247899724       -4.8565004515      -11.5478566919
 H        -1.9128319783       -6.5487483909      -11.5552763431
 H         0.8079793589      -12.6374875976       -9.0712194053
 H         1.1481229687      -10.8575885389       -9.2760945021
 H         0.1622198735      -11.6877862769      -10.4141421725
 H        -2.3318824411      -12.6970615126       -8.8899495345
 H        -2.3998578045      -12.1111964949       -7.2315493950
 H        -1.2758650887      -13.2871744911       -7.5232284873
 H         5.4154434614      -11.3268137841       -7.2118389035
 H         4.9360276831      -12.3553379179       -5.8528954762
 H         6.2140627216      -11.2794828030       -5.5385250361
 H         5.3532887258       -9.6482645670       -3.8999793507
 H         4.2404792480      -10.8931630130       -3.5717397347
 H         3.7968864627       -9.1833113458       -3.8176953799
 H         4.2961779133       -5.3614671456       -6.6403615888
 H         3.3698942559       -3.8616645837       -6.9157503535
 H         4.2852121914       -4.6737133208       -8.2782789435
 H         0.8222495630       -6.7310731679       -6.8310344993
 H         1.2745080674       -5.2024614028       -6.2449074916
 H         2.3340132017       -6.3811355659       -5.8638375279
 H        -1.5149731747       -1.8780995823      -13.1988897473
 H        -1.4025195134       -2.8301505004      -11.7752148653
 H        -0.3942290299       -3.1747391522      -13.0738435691
 H         1.4288696680        0.3680662500      -12.6113905089
 H         0.1502572051       -0.0514159064      -13.9003688298
 H         1.5726749872       -0.9842924899      -13.5913532544
 H        -2.4344494978        4.7631611667       -6.4711018637
 H        -2.7651940657        4.8138744648       -8.0815474746
 H        -1.1154759434        4.6836238159       -7.5598920274
 H        -0.5310509749        2.2714486829       -6.2390447476
 H        -1.6320240959        0.9926629475       -6.4881294391
 H        -2.0527239945        2.3328915354       -5.5687406937
 H        -9.0742200811        1.6268640181       -4.9005009756
 H        -7.9914695250        3.0818800031       -4.5359257946
 H        -7.3454293524        1.5806915203       -4.1698353070
 H        -8.1852308201        1.1059066708       -8.3699317366
 H        -9.4554491011        1.4705810176       -7.2539480937
 H        -8.3243255020        0.1080732544       -6.9610185766
 H        -3.7782329920        8.8449272799       -6.1538746473
 H        -5.4147249755        8.5801453890       -5.5430121737
 H        -5.1617173005       10.0372566766       -6.5695045279
 H        -6.6986763478        8.0179198324       -9.1692207421
 H        -6.7397862773        9.4910412975       -8.1773883077
 H        -7.2262889738        8.1046570111       -7.4700788751
 H         0.6833217616        6.4570018405      -11.7456692037
 H         0.2354006100        6.1057462218      -13.4200646778
 H        -0.3098879200        5.1132727820      -11.9857817142
 H        -2.0468728284        8.8917872975      -12.8986955224
 H        -1.1199475227        7.8705690437      -14.0391305761
 H        -0.3562375022        8.6250766927      -12.5795828519
 H        -7.2879172541        4.1745222120      -15.0236937129
 H        -8.3056329733        4.9072344407      -13.9115844596
 H        -8.1365750692        3.0974221217      -14.0227784682
 H        -7.9909490625        5.2042027624      -11.6294853003
 H        -6.6617773021        4.3181915624      -10.8055362205
 H        -8.2791748389        3.6740066808      -11.3232893739
 Na       -3.6400742377        4.3717444465      -10.2906031924
 Na        0.1462576051       -7.8603040223       -8.8833425470
