232

 C        -6.1585942934        1.7443784459      -13.6798714153
 C        -5.8600013070        2.8862054558      -12.7065043666
 O        -5.2009235448        2.7230256838      -11.7043672094
 C        -6.7027644526        4.1754975380      -12.8638900963
 C        -5.5368706002        5.2726139452      -12.5995816547
 O        -5.0848896544        5.6429167189      -11.5335607960
 C        -4.8735104630        5.4454726506      -13.9191946941
 C        -3.5738417355        6.2018045037      -14.0244289195
 C        -2.6128205755        5.8335424713      -12.7841272109
 O        -2.6559457086        4.6430180070      -12.4552550623
 C        -1.5644996931        6.7440400120      -12.1321418863
 C        -1.8827625490        6.9835090138      -10.6261978619
 O        -2.0561726022        6.0186057099       -9.8580109977
 C        -1.7708161241        8.3599162354      -10.0644558860
 C        -2.7313398009        8.5015772376       -8.7787254533
 C        -4.1750330005        8.2064240610       -9.0160464253
 O        -4.6494303195        8.0319199770      -10.1326621981
 C        -5.0078035610        8.1410000088       -7.7054386685
 C        -4.8850313572        6.6714782610       -7.1192475712
 O        -3.9086830100        6.3072932278       -6.4920816828
 C        -5.9709038399        5.6545738575       -7.5189206314
 C        -6.0682993992        4.4522843590       -6.6120432103
 C        -7.1660271316        3.4963707311       -7.0362887018
 O        -7.9843250333        3.8755818542       -7.8629890407
 C        -7.2875704099        2.0496144015       -6.4705406338
 C        -5.8489025246        1.3705258347       -6.4322474066
 O        -5.1242739898        1.5445281860       -5.4507394648
 C        -5.3764229676        0.5972029613       -7.6563662873
 C        -3.8553314759        0.7431249364       -7.7862330915
 C        -3.4886692186        2.2043928446       -8.0433262100
 O        -4.3085002080        2.9930904887       -8.2823008750
 C        -2.0180923909        2.7353146959       -7.7720857752
 C        -1.3285115472        2.5426787251       -9.1339453431
 O        -1.7887959595        3.0385622722      -10.1478775127
 C         0.0902738250        1.7642034018       -9.2783566443
 C         0.1159743967        1.0031591270      -10.7233059600
 C        -0.6604643811       -0.2691894648      -10.9971208380
 O        -1.7155309222       -0.5511713095      -10.4647464068
 C         0.0093210951       -1.2177530322      -12.0078243875
 C         1.1164000872       -1.7918173287      -11.0464075875
 O         2.0354121468       -1.1041260657      -10.7742919583
 C         1.0631611951       -3.2253052076      -10.6299106963
 C         2.0696511444       -3.6085937756       -9.6355663781
 C         1.6859143862       -5.0188066045       -8.9723960571
 O         0.8072846522       -5.7004264878       -9.5160798087
 C         2.4466326604       -5.6179904214       -7.6864011834
 C         3.0865612149       -7.0872777227       -8.2665065757
 O         2.2730220775       -7.9058485403       -8.5983399085
 C         4.5765962159       -7.1889677418       -8.4418954172
 C         5.1354854172       -8.5089855135       -7.7019949735
 C         4.2986535704       -8.8428098847       -6.4413393072
 O         3.6670984999       -7.9271401196       -5.9207431187
 C         4.3217531509      -10.2639286144       -5.7654995948
 C         3.0124002271      -10.9229486077       -6.2346124778
 O         2.8703845400      -11.4662866817       -7.3309502939
 C         1.6884092487      -10.7781304551       -5.3805449250
 C         0.4259052250      -11.4261173708       -6.1237342701
 C        -0.0415397578      -10.5615226552       -7.2168017026
 O         0.1248917748       -9.3720782451       -7.1745363103
 C        -0.6942466217      -11.3879321672       -8.4912855274
 C        -1.6389635763      -10.4487735119       -9.2204027026
 O        -1.1834368275       -9.6823500399      -10.0668284024
 C        -3.0619465297      -10.1708277186       -8.6684752017
 C        -3.8331440744       -9.0469434051       -9.5418980293
 C        -3.3373261380       -7.5627737912       -9.2525434902
 O        -2.5184699118       -7.4848915912       -8.2311761254
 C        -3.6419166962       -6.1411212647       -9.9883470799
 C        -4.9588458781       -6.2482297125      -10.9103026387
 O        -6.0447516062       -6.5357170760      -10.4301840052
 C        -4.8674668165       -5.5691642477      -12.3447547492
 C        -4.9092719908       -6.2994276230      -13.6809438245
 C        -5.3510903696       -5.3461661647      -14.8887237263
 O        -4.5205445778       -4.6417560735      -15.4151417051
 C        -6.8628132000       -5.1690208260      -15.1915096444
 C        -7.4003590034       -4.0803943595      -14.2210614046
 O        -6.7185505465       -3.3864595358      -13.5068793316
 C        -8.9478905753       -3.8653690688      -14.2013582886
 C        -9.2549036681       -2.4194965479      -14.4051245513
 C       -10.7246009344       -2.1958471896      -14.9854180418
 O       -11.3360510445       -3.1661825211      -15.3688138264
 C       -11.3523458609       -0.7054474127      -15.3161011177
 C       -10.6622110436        0.3110502408      -14.2172190247
 O        -9.4606484763        0.2637139680      -14.0287498526
 C       -11.6439090026        1.3363122852      -13.5150197280
 C       -10.6709848091       -0.2705383556      -16.6711043604
 C       -12.8702377816       -0.8884319491      -15.2744048481
 C        -7.0878137796       -4.5031551689      -16.6593331600
 C        -7.5393875979       -6.4914576566      -15.1164614163
 C        -4.1727604790       -5.2541763289       -8.9005907100
 C        -2.2718508522       -5.7800254925      -10.7893095945
 C         0.4161174669      -11.6946355980       -9.4337029466
 C        -1.3946267596      -12.7438203724       -8.0191385542
 C         5.5457831530      -11.1066650062       -6.2695108981
 C         4.2788272269      -10.0725118843       -4.2323562883
 C         3.6241252319       -4.8579394753       -7.0751945589
 C         1.3694406387       -5.9258182336       -6.6686868205
 C        -1.0384220267       -2.2380973636      -12.5274667441
 C         0.6495047947       -0.4113650615      -13.1077696278
 C        -2.1046500797        4.2058061899       -7.5427481109
 C        -1.3188384621        1.9844288387       -6.7312675666
 C        -7.6668605619        2.3138220301       -4.9422722768
 C        -8.3688235098        1.2270154960       -7.2701182565
 C        -4.4324962509        9.1850684136       -6.6671760696
 C        -6.4629412251        8.4804721793       -8.0890000332
 C        -0.2180073718        5.9753305141      -12.0755777439
 C        -1.3940369953        7.9370751700      -13.1728804136
 C        -7.4701807835        4.4282601648      -14.2346198741
 C        -7.6445106236        4.2122441802      -11.6362816485
 H        -5.2585873075        1.1471125161      -13.6556490595
 H        -6.2820542250        2.2730980267      -14.6220675844
 H        -7.0675599659        1.2593111337      -13.4051520078
 H        -5.5174874112        6.1351756944      -14.4739969035
 H        -4.9172684206        4.4651764236      -14.5204068987
 H        -3.6927880896        7.2870678073      -14.1642313874
 H        -3.0595040018        5.7721731251      -14.9110469458
 H        -1.9473175062        8.9763194421      -10.9208253733
 H        -0.7801911886        8.4565153314       -9.7577605368
 H        -2.6434867133        9.5250548394       -8.4522004853
 H        -2.2731619033        7.8786039813       -8.0147562545
 H        -5.7454283079        5.2817389925       -8.4773930193
 H        -6.9566230844        6.1440681788       -7.6419522246
 H        -6.0442237568        4.8078850048       -5.5277605292
 H        -5.1237652155        4.0261021776       -6.5909015291
 H        -5.9041206260        0.9064080561       -8.5710506646
 H        -5.5397369452       -0.4526805860       -7.4135871011
 H        -3.3287842617        0.1075483363       -8.5257865666
 H        -3.4862585014        0.4903672305       -6.8177324552
 H         0.3764806884        1.2042430191       -8.3835481964
 H         0.8553457465        2.4945304196       -9.4319881661
 H         1.2422967786        0.8595795577      -10.8151108108
 H        -0.2592876171        1.8964799954      -11.3939718010
 H         1.0743486444       -3.9290131991      -11.3871025471
 H        -0.0062658903       -3.3857347272      -10.2511430379
 H         2.2653661013       -2.7447800739       -8.8091097340
 H         3.0288634376       -3.8975326936      -10.0720294544
 H         5.2562004960       -6.4567067155       -8.1316472101
 H         4.7068102988       -7.2628717472       -9.5073674205
 H         6.2030303958       -8.3238407492       -7.4163900061
 H         5.1526292404       -9.3948991650       -8.3827697335
 H         1.5380749332       -9.6086952214       -5.2860058788
 H         1.9272557925      -11.1181256412       -4.3198767921
 H        -0.5466053112      -11.4999029441       -5.4284185067
 H         0.5860093242      -12.3477317072       -6.6072181162
 H        -3.1882037167       -9.9388718274       -7.5924005635
 H        -3.7325293037      -11.0398776136       -8.8087627745
 H        -4.7640472197       -9.1453087184       -9.1575573819
 H        -3.7747195993       -9.1789578616      -10.5994404006
 H        -3.9210605885       -5.0760507901      -12.2267562171
 H        -5.6415552826       -4.7375187303      -12.2627766245
 H        -5.4874019384       -7.1879959101      -13.5890872508
 H        -3.8779459963       -6.5980005367      -13.9688327983
 H        -9.3436289647       -4.2347552342      -13.2363619516
 H        -9.3718649342       -4.5104076675      -14.9496564118
 H        -8.6175434004       -2.0333729906      -15.1638759492
 H        -9.0438132334       -1.8159142781      -13.4840762732
 H       -12.5396789298        1.3390010908      -14.1982204824
 H       -11.1486517967        2.2898003266      -13.6144853283
 H       -11.7570047775        1.1299686252      -12.4189530986
 H        -9.5962319504       -0.1903375599      -16.5213216583
 H       -11.0288273261        0.7513892301      -16.9288988608
 H       -10.8134002420       -0.8965483524      -17.5934910943
 H       -13.1877383714       -0.9994482785      -14.2310227644
 H       -13.1072258052       -1.9138039145      -15.7143149743
 H       -13.4192975362       -0.0296480711      -15.6928902954
 H        -8.0648226696       -4.3224478030      -16.8894822538
 H        -6.6004213755       -5.1730493303      -17.4045572878
 H        -6.5807452119       -3.5587956112      -16.8606526750
 H        -7.6253315839       -6.8291300343      -14.1333642733
 H        -7.0484956583       -7.1936591601      -15.7794657342
 H        -8.6332388110       -6.4567313182      -15.3217804953
 H        -3.5238745846       -4.6462997639       -8.3318381055
 H        -4.7720411790       -5.9182636817       -8.2625035679
 H        -4.9239312128       -4.6248481257       -9.3471168428
 H        -1.5039969098       -5.7444724246      -10.0089543002
 H        -2.0902434530       -4.7919800489      -11.1810986123
 H        -2.0663884877       -6.4297848547      -11.6063912005
 H         1.1746725684      -12.1782681194       -8.8977053752
 H         0.8261455926      -10.8816089243      -10.0649559037
 H         0.0082441718      -12.3802260698      -10.1715273619
 H        -2.3007493581      -12.9156211286       -8.6656416860
 H        -1.6246186692      -12.7969287966       -6.9349964474
 H        -0.7177661640      -13.6074975156       -8.0839694882
 H         5.2408716001      -11.6099929096       -7.1606247250
 H         5.9454752334      -11.7793558524       -5.5310897486
 H         6.3605909797      -10.4226387483       -6.4611412727
 H         5.2329816750       -9.7008026073       -3.8217483523
 H         4.1190654391      -11.0756198779       -3.7340702464
 H         3.4866978998       -9.3437533609       -3.9398534919
 H         4.0375980780       -5.4839558996       -6.2828709633
 H         3.2168868353       -3.8725820166       -6.7345489239
 H         4.4548414020       -4.6903314356       -7.7466231684
 H         0.6115850314       -6.6271689407       -7.0199609075
 H         0.8244855996       -5.0862993056       -6.4078122583
 H         1.7527606075       -6.2112139209       -5.6678405847
 H        -1.8239373759       -1.6582240874      -13.0086747151
 H        -1.5130001582       -2.8060974472      -11.6655152237
 H        -0.8436933649       -2.9388544435      -13.3355011082
 H         1.0439613321        0.5286859647      -12.7736838522
 H        -0.1217876670       -0.0389169002      -13.8656342448
 H         1.3446100700       -0.9527700518      -13.5992664883
 H        -2.5903931912        4.6083853535       -6.6556840484
 H        -2.6598459336        4.6760179192       -8.3049623286
 H        -1.1427847946        4.7161916178       -7.5166219511
 H        -0.4380972610        2.5478182975       -6.3673797426
 H        -0.8673996935        1.0252924905       -7.0000938800
 H        -1.8077124587        1.6669690568       -5.8314648394
 H        -8.6366364491        1.9168690790       -4.6724932780
 H        -7.6969775522        3.3974497950       -4.7585704377
 H        -6.9298710987        1.8134108149       -4.3236936523
 H        -8.0131540939        1.0542561477       -8.3039037753
 H        -9.2097197650        1.8311955236       -7.4566501293
 H        -8.7071040037        0.2970859892       -6.7539940863
 H        -3.6580962386        8.5605199700       -6.2109311090
 H        -5.1743595818        9.3892315170       -5.9275301085
 H        -4.0406875177       10.0158815593       -7.1858843296
 H        -6.9039928222        7.8193308094       -8.8724782384
 H        -6.4353069585        9.4962250423       -8.4674433484
 H        -7.1442166369        8.5071400850       -7.2476167761
 H         0.6090325591        6.6024422914      -12.4447712808
 H        -0.2385936580        5.0222893155      -12.7513713603
 H         0.0592722527        5.6431347072      -11.0615254108
 H        -2.3225352438        8.4819920575      -13.3561208564
 H        -0.9743806750        7.4430000758      -14.0540336019
 H        -0.6097236875        8.5920331035      -12.7867103224
 H        -6.9677700158        3.9419815607      -15.0894581929
 H        -7.7213985023        5.4570155735      -14.4659780977
 H        -8.4672894784        3.9306152238      -14.2251801473
 H        -8.3433968522        5.0703159455      -11.6062288061
 H        -7.0256269653        4.0640538956      -10.8108656962
 H        -8.4124556087        3.4264081452      -11.7148985174
 Na       -3.6863337981        4.3863753385      -10.4638104014
 Na       -0.2410255189       -7.7715032025       -8.9092966884
