232

 C       -21.8114477586       -7.7417486780       -3.3051390649
 C       -20.7910216269       -6.6323874797       -3.5643234240
 O       -19.8872672913       -6.5487752604       -2.7520496031
 C       -21.0482761523       -5.4886202046       -4.6793457844
 C       -20.2665207901       -4.1698693193       -4.3712747159
 O       -20.0735987926       -3.7438655097       -3.2627553173
 C       -19.8889606681       -3.1815199840       -5.5650849352
 C       -18.7530508623       -3.7167410556       -6.4510887281
 C       -17.5113191748       -4.2269040143       -5.5361107438
 O       -17.4346481825       -5.3125747535       -5.0136881949
 C       -16.3415392426       -3.2342598551       -5.2237178226
 C       -16.6382144644       -2.7958262088       -3.7516634020
 O       -17.7945214262       -2.6281465963       -3.3853509304
 C       -15.4582173231       -2.5856337047       -2.7524362176
 C       -15.8761653413       -2.5119733722       -1.1983007579
 C       -16.0779839105       -3.8325237991       -0.5313602462
 O       -16.6900099421       -4.7435533019       -1.0367360309
 C       -15.2928388664       -4.1307785531        0.7964952686
 C       -13.9389718914       -4.7634026100        0.2950647212
 O       -13.1335731667       -4.0398076819       -0.1072223021
 C       -13.7860926963       -6.3697607320        0.2094108129
 C       -12.4384942521       -6.8352683083       -0.3688628882
 C       -12.2341768387       -6.5699955143       -1.8272032149
 O       -12.7569758337       -5.6761087851       -2.4294913836
 C       -11.6010822702       -7.6023692538       -2.7983777416
 C       -10.0568717673       -7.0678055357       -3.1708740354
 O        -9.5253629913       -6.4825028868       -2.2860263765
 C        -9.4917873805       -7.2850362644       -4.5655633411
 C        -7.9759381010       -7.2862611068       -4.6901458987
 C        -7.3686046368       -5.9072785465       -4.8622185284
 O        -7.9548300512       -5.0963503278       -5.5967577389
 C        -6.0336364168       -5.4862840908       -4.1946101667
 C        -4.8642108976       -6.0817726420       -5.1333523800
 O        -4.7913081573       -7.2848839459       -5.2811260783
 C        -4.0018681438       -5.1174642320       -6.0611111690
 C        -2.9183816830       -4.3187514608       -5.1974905170
 C        -1.9549599747       -3.5610700141       -6.0618020867
 O        -2.3819600285       -2.5598382383       -6.5613048235
 C        -0.4300439992       -4.0331942281       -6.2436786076
 C        -0.3000404373       -5.0857354696       -7.3562530964
 O         0.0713823171       -6.2204930257       -7.1146807063
 C        -0.8856643686       -4.7161011380       -8.8393900849
 C        -0.2484306324       -5.4548146303       -9.9880990797
 C         0.9985172423       -4.7611146136      -10.5338953754
 O         1.5062860616       -3.7212677300      -10.1620484799
 C         1.7033207740       -5.6198690584      -11.5861466930
 C         1.6997465708       -4.5986605874      -12.8275150884
 O         0.7563778884       -4.6359505052      -13.5814060046
 C         2.7439582745       -3.4958137590      -12.8761370477
 C         2.5814572143       -2.6085359295      -14.1328159227
 C         3.0197036900       -1.1465746798      -13.7447634385
 O         2.1315321286       -0.3211447933      -13.4575267358
 C         4.5536463378       -0.7275900208      -13.5305914652
 C         4.7588437822        0.6725250374      -14.4201932617
 O         5.7151121597        0.6559433058      -15.2231866324
 C         3.8362509590        1.8986625940      -14.4189594575
 C         4.0403595450        3.0225779841      -13.3711186296
 C         5.4505168206        3.6633628404      -13.5852537315
 O         6.2275096984        3.1486774960      -14.3514586460
 C         6.0531690499        4.7308510588      -12.7046584111
 C         6.7706777396        5.9625721795      -13.4512841762
 O         7.0077028712        7.0628254413      -12.9968529129
 C         7.5185323438        5.6373790933      -14.7728568783
 C         6.7203101741        6.5176586566      -15.7498384556
 C         6.5803449915        6.0537866968      -17.1552450159
 O         6.2235833057        4.9029775931      -17.4250212642
 C         6.4466190668        7.1456019214      -18.3032946578
 C         7.6009503907        6.9079716315      -19.4482864515
 O         8.6459501838        6.3117259327      -19.2938755609
 C         7.2027644841        7.3664991703      -20.8979317170
 C         8.1224283523        6.6344328857      -21.9987183713
 C         7.7600756025        5.2635056072      -22.4206417039
 O         6.6933289578        4.7366492643      -22.3710693416
 C         9.0403191305        4.5149319957      -23.0695659552
 C         9.2588600161        3.0851953858      -22.3770326049
 O         9.1672752025        2.0326677598      -23.0002672788
 C         9.5707641300        3.0844796235      -20.8409672832
 C         9.1703169742        1.6224356785      -20.2001335621
 C         8.3254468822        1.5301888849      -18.9495494874
 O         8.3453740244        2.3502754409      -18.0596784204
 C         7.4585032579        0.1744522690      -18.8618752585
 C         6.0782308063        0.7544775044      -19.2795477392
 O         5.5560891219        1.4967245808      -18.4997679684
 C         5.3800552727        0.3401871980      -20.5020002385
 C         8.0625154916       -0.8087880555      -19.9015619046
 C         7.5596466012       -0.3639912549      -17.4281676042
 C         8.6887777345        4.1203172139      -24.5723795289
 C        10.3591701572        5.3649042976      -22.7841671879
 C         4.9955203690        6.9907157388      -18.9802445928
 C         6.4809727613        8.5906888768      -17.7903762528
 C         4.9793641592        5.2728187631      -11.7566495265
 C         7.1680095420        3.9324125418      -11.9622255259
 C         4.7898225937       -0.7497925391      -12.0280101755
 C         5.5849027271       -1.7785157590      -14.1983979938
 C         3.1467061869       -5.9406343070      -11.2810919481
 C         0.9250434843       -6.8855058276      -12.1668318270
 C         0.3142362508       -2.7185984058       -6.7467393921
 C         0.2080237026       -4.6011041905       -4.9298164264
 C        -6.0563491278       -4.0033248819       -3.8278085963
 C        -5.7974710807       -6.2617169387       -2.8696835280
 C       -11.3185828884       -8.9611995688       -2.0259671171
 C       -12.6921541631       -7.7378448018       -3.8568889354
 C       -15.0234659315       -2.9562680633        1.7281247989
 C       -16.1095423892       -5.0732701259        1.7381446165
 C       -14.9898460070       -3.9486933495       -5.2938341332
 C       -16.1471965330       -1.9046224164       -5.9843952395
 C       -20.6184583605       -6.2871035660       -6.0047071629
 C       -22.5205974261       -5.1299855166       -4.6586387749
 H       -22.2422506743       -7.4503043825       -2.3365199340
 H       -21.3363702185       -8.6594639791       -3.2041425492
 H       -22.4876540494       -7.8158194204       -4.0949518640
 H       -19.7215357684       -2.1512677190       -5.1961764499
 H       -20.7035041440       -3.0446578625       -6.3276416718
 H       -18.3386788880       -2.9349741505       -7.1211469261
 H       -19.0979360659       -4.4694482851       -7.1126852400
 H       -14.9351710268       -1.6817305924       -2.8877011470
 H       -14.6985194991       -3.3962945582       -2.9354802228
 H       -16.7585627729       -1.8469774211       -1.1675756262
 H       -15.0885765923       -1.9979047160       -0.6830869729
 H       -14.5951084169       -6.7711638313       -0.4371074709
 H       -13.8485299164       -6.8763722022        1.1775356045
 H       -12.2797408105       -7.9097936376       -0.0721202157
 H       -11.6207952595       -6.3732771686        0.2543395375
 H        -9.8503243061       -6.4466108337       -5.1941356579
 H        -9.9373070529       -8.2121033064       -4.9831893126
 H        -7.6726200673       -7.9424360267       -5.5568335189
 H        -7.5840820864       -7.7587167335       -3.7451094239
 H        -4.7028873010       -4.5484839893       -6.6432860372
 H        -3.4668651780       -5.8328736356       -6.6710580725
 H        -2.3367419447       -5.0356639152       -4.5711203713
 H        -3.4797429640       -3.6405057693       -4.5737825363
 H        -0.8063302691       -3.7149737238       -9.0940262648
 H        -1.9838150672       -5.0502007781       -8.8334189255
 H        -0.9931684861       -5.4855096508      -10.7964429605
 H         0.0427791492       -6.4905780834       -9.8324448694
 H         3.7732784155       -3.9132448307      -12.9307288963
 H         2.6732243047       -2.8524026274      -11.9831066561
 H         1.5408596705       -2.7627573318      -14.4161488262
 H         3.1222838145       -2.8842340758      -14.9883414504
 H         2.7176940588        1.6601053305      -14.3483149432
 H         3.8824177050        2.3371661260      -15.4916519850
 H         3.8623043297        2.6890395989      -12.3748850888
 H         3.2715555682        3.7149994290      -13.4626354051
 H         7.5086174241        4.5574799383      -14.9368432734
 H         8.6151375407        5.8435852409      -14.6031621284
 H         7.1812404404        7.5206196725      -15.6883470318
 H         5.6436212003        6.6345810598      -15.4094130185
 H         7.2772423951        8.5056520298      -21.0659316128
 H         6.1594481922        7.1825059283      -21.1964667712
 H         9.1433533920        6.5958768134      -21.6078240633
 H         7.9099356728        7.2148239639      -22.8864288312
 H         8.8125636307        3.7564940367      -20.3357104607
 H        10.6341751657        3.3467844776      -20.7676452328
 H        10.0278254156        0.8971388610      -19.9794135129
 H         8.6224499231        1.1410302123      -20.9744835505
 H         4.8970868379        1.1574148585      -21.1625819415
 H         4.5504008610       -0.2909305931      -20.3519023282
 H         6.0698583006       -0.2348270442      -21.0578169550
 H         7.4935611946       -1.6708339782      -19.7186837678
 H         9.0284666275       -1.0606456608      -19.4978598497
 H         8.0965055454       -0.5679038869      -20.9552943272
 H         8.6720365933       -0.5760230272      -17.1921126232
 H         6.8551567116       -1.2273980680      -17.2775616834
 H         7.4406908014        0.4464577592      -16.7033389795
 H         8.8479500421        2.9638015225      -24.7201202707
 H         9.4362628780        4.4487692352      -25.3478213725
 H         7.6451916259        4.3539051458      -24.8489483071
 H        11.1601458410        5.0233732205      -23.3953383130
 H        10.7897737239        5.1835218852      -21.8051314892
 H        10.3136095380        6.3470928665      -23.1254067956
 H         4.2889993331        6.9617495727      -18.2017841725
 H         4.9709471244        6.0316813900      -19.5358155408
 H         4.9528817410        7.7987682492      -19.6990820246
 H         7.2980345813        8.9006314273      -17.1407543520
 H         5.5894688518        8.8148239265      -17.1682094395
 H         6.4790142939        9.3189464670      -18.6117032245
 H         5.0091931935        6.3189691131      -11.4681997949
 H         4.9072992903        4.7858355288      -10.7951256059
 H         3.9863125465        5.2025185810      -12.1127108191
 H         6.7529453888        3.5401653695      -11.0338983206
 H         7.9486056878        4.6516985339      -11.8012212478
 H         7.6553032336        3.2453480249      -12.5476576602
 H         5.6332987669       -0.1000564860      -11.7659809537
 H         4.7594196912       -1.7231452964      -11.5413414036
 H         4.0328428227       -0.1596719789      -11.6370575080
 H         5.2178231946       -2.7462292849      -14.0845243260
 H         6.6267557737       -1.5853470852      -13.7492339853
 H         5.6338882280       -1.4505099617      -15.1988353975
 H         3.3368744401       -6.7996646487      -10.6207808414
 H         3.7102133881       -4.9990355708      -10.9852721752
 H         3.6640965404       -6.0800235688      -12.2445724838
 H        -0.0849293476       -6.6974696430      -12.3053911858
 H         0.9470407998       -7.7552317254      -11.5026023773
 H         1.4825350519       -7.2285846396      -13.0292398830
 H         0.6446202021       -2.0588984770       -5.9665681858
 H        -0.4186634151       -2.0918113016       -7.2960605454
 H         1.1579899144       -3.0604773007       -7.4124936620
 H        -0.4043225283       -5.3846689719       -4.5577261597
 H         0.2326653795       -3.8069183046       -4.1769971143
 H         1.1443535861       -5.0768958035       -5.2454671831
 H        -6.0152962670       -3.4051811808       -4.6844772730
 H        -5.1426927130       -3.7921708699       -3.3682599722
 H        -6.9377772990       -3.8054492825       -3.1778227610
 H        -6.6308973867       -6.2250987162       -2.1391661491
 H        -4.8800354770       -5.9444788687       -2.3956095031
 H        -5.7579558974       -7.3137699211       -3.1997383662
 H       -12.3161246513       -9.4469738622       -1.8657728486
 H       -10.7840406631       -8.7959981136       -1.1027756854
 H       -10.6545865194       -9.5278481750       -2.5956754177
 H       -13.5062054403       -8.0274164704       -3.3225308664
 H       -12.3971412732       -8.2692557279       -4.7594231165
 H       -13.0879258390       -6.7218206982       -4.1739760977
 H       -14.2468149701       -2.3376960026        1.2782053222
 H       -14.8416728304       -3.2273404671        2.7989074493
 H       -15.9996192079       -2.3499820520        1.7559099278
 H       -15.5373876806       -5.3663772295        2.6765252366
 H       -16.2587952183       -6.0478436546        1.2883640426
 H       -17.1407512977       -4.6399121513        1.8941945979
 H       -14.5749946947       -4.2499754624       -4.3979094214
 H       -14.3176246567       -3.2451181814       -5.8841828137
 H       -15.1328217088       -4.8855528138       -5.7319496171
 H       -17.0901125706       -1.3895040948       -6.4360444357
 H       -15.6746903579       -1.9673897141       -6.9270344289
 H       -15.6928712869       -1.1391863979       -5.4232125001
 H       -19.5529291691       -6.3501497712       -6.0981483224
 H       -21.0451302792       -5.5805792003       -6.8539222849
 H       -21.1492790772       -7.2582916305       -6.0674129534
 H       -22.7662539896       -4.0238382009       -4.8471631117
 H       -22.8944557580       -5.4660425238       -3.7040198343
 H       -23.1154242017       -5.6678499552       -5.3657827933
 Na      -18.3292789264       -4.8646515218       -2.6490865601
 Na        6.3788970421        2.8292502237      -16.7865473584
