232

 C        -5.9860688260        1.8729318375      -13.8078006974
 C        -6.0278666231        2.8720211283      -12.6135650319
 O        -5.5843578501        2.5989205266      -11.5185809082
 C        -6.7693178521        4.2698133340      -12.7307793782
 C        -5.6164783982        5.3414208113      -12.8032442619
 O        -5.2794524705        5.7739291699      -11.7173955077
 C        -4.7988800639        5.6809085355      -14.0494934698
 C        -3.7193552197        6.6962462695      -13.6594216736
 C        -2.4945292054        5.8526835193      -13.0761128620
 O        -2.6470283610        4.6365975080      -12.9539876056
 C        -1.4101913994        6.5955810211      -12.3773437086
 C        -2.1135283277        6.9315839115      -10.8668771374
 O        -2.8719871552        6.1387958007      -10.3510970578
 C        -1.7789672851        8.2849644089      -10.1699540489
 C        -2.5502404066        8.4546000097       -8.8383944633
 C        -4.0358327984        8.5722425990       -8.9945093040
 O        -4.5735375514        8.7633144823      -10.0327449546
 C        -5.0244064847        8.4712821905       -7.7522872485
 C        -4.8912312343        6.9751111098       -7.2432224873
 O        -3.8927100481        6.5838255438       -6.6641844430
 C        -5.9683414868        5.8648719653       -7.5596201316
 C        -5.9763296617        4.6709297240       -6.6317180681
 C        -6.8475820664        3.5136788941       -7.1589444033
 O        -7.4223911901        3.5991977846       -8.2160459990
 C        -7.0172334293        2.1560147924       -6.2939845293
 C        -5.6634798098        1.4628777290       -6.4003499787
 O        -4.8889022710        1.5731015541       -5.4538298493
 C        -5.2906963050        0.6724027462       -7.6870029420
 C        -3.7701695516        0.5948110891       -7.7841717876
 C        -3.3035508520        1.9682063277       -8.0472581594
 O        -4.0085145691        2.8500572643       -8.4196717636
 C        -1.8143443423        2.2202899733       -7.8513419785
 C        -1.1755104134        2.3538677664       -9.2509404520
 O        -1.7129319701        2.9656069117      -10.1388356860
 C         0.3029745003        1.7496910001       -9.4952936562
 C         0.4447426554        1.3257085247      -10.9312869488
 C        -0.3560245613        0.0560646185      -11.1087409693
 O        -1.4186999623        0.0196217867      -10.5036532282
 C        -0.0340290730       -1.1637192720      -12.0301548146
 C         1.1675743473       -2.0064372265      -11.4411969008
 O         2.2164637056       -1.3900221577      -11.3839643979
 C         0.8923387082       -3.3890604863      -10.8316699742
 C         1.6231814062       -3.6971033766       -9.5634435113
 C         1.3379827602       -5.0484686881       -8.9322957722
 O         0.2922499286       -5.5925890410       -9.2894380761
 C         2.1523050331       -5.6086870798       -7.7147184651
 C         2.9187352212       -6.8860271630       -8.1398255738
 O         2.2743313927       -7.7561228738       -8.6796976395
 C         4.4023087521       -6.9216520462       -8.0509050508
 C         4.8892010225       -8.3546055609       -7.6989865183
 C         4.0746982299       -8.8170858690       -6.3819184516
 O         3.1290230607       -8.1542553419       -5.9430573290
 C         4.3981416784      -10.2138916769       -5.6625709296
 C         3.1649162279      -11.1090953083       -6.1689835030
 O         3.3156006967      -11.8923328761       -7.0823156891
 C         1.7314571250      -10.7415858636       -5.5308327200
 C         0.6712107149      -11.5059965065       -6.3240453545
 C        -0.1083826421      -10.6604872112       -7.2613874328
 O        -0.1130737776       -9.4457791576       -7.1469348528
 C        -0.8085517012      -11.2927377878       -8.4595596671
 C        -1.6429909307      -10.2593882035       -9.3338335116
 O        -1.0238867581       -9.5125533547      -10.0747060343
 C        -3.1917889938      -10.1363465939       -9.0903091904
 C        -4.0339254647       -9.0929764551       -9.7180516731
 C        -3.5725647676       -7.7642933987       -9.2207163788
 O        -2.4514251136       -7.7935313099       -8.5543421672
 C        -3.9619186316       -6.4235774374       -9.6747861495
 C        -5.1740615789       -6.5314669153      -10.5671023373
 O        -5.9406519031       -7.4651673511      -10.3584658630
 C        -5.5781891894       -5.5828607870      -11.7002758537
 C        -5.0907275923       -6.1759279796      -12.9765285638
 C        -5.1728861432       -5.4332168176      -14.3597182644
 O        -4.1453750935       -5.2006115012      -14.9328703883
 C        -6.5894614464       -5.1412614873      -15.0365988431
 C        -7.3074876758       -3.9528150643      -14.2337990050
 O        -6.6274260243       -3.1201279171      -13.6568234077
 C        -8.8410518033       -3.8207177880      -14.3410059056
 C        -9.2743602173       -2.4041514625      -14.5678577972
 C       -10.7914844936       -2.2562842757      -14.8555698562
 O       -11.6399171221       -3.1555275920      -14.8610089329
 C       -11.1954833371       -0.7912050544      -15.2206934643
 C       -10.6426862537        0.3378914920      -14.2748349607
 O        -9.4397710882        0.3811325303      -14.2192666734
 C       -11.5616992027        1.3947245736      -13.6355164925
 C       -10.7289242316       -0.6594443990      -16.7327459752
 C       -12.7455997025       -0.6846455856      -15.1422554810
 C        -6.3729137566       -4.7055789588      -16.4305452555
 C        -7.4122429726       -6.4350327989      -14.9163706906
 C        -4.2401842447       -5.4076955727       -8.5614458353
 C        -2.8983159642       -5.8545395185      -10.6383860803
 C         0.3455225526      -11.7034590785       -9.4704638449
 C        -1.5802930706      -12.6061097989       -8.1161449001
 C         5.7510108152      -10.7928178327       -6.1721371672
 C         4.4591857588      -10.0654705531       -4.1399695315
 C         3.1277227651       -4.5555552033       -7.1122160156
 C         1.2458000255       -5.9008206123       -6.5245788025
 C        -1.3403255110       -1.8876407723      -12.1879795946
 C         0.4094541133       -0.5756925963      -13.4822518963
 C        -1.7424131940        3.7553451372       -7.4406158658
 C        -0.9849140996        1.4780824179       -6.8308371409
 C        -7.4149141290        2.4637304750       -4.8419265706
 C        -8.0891270468        1.3170594597       -6.9803142699
 C        -4.5062452609        9.3534503010       -6.6211990837
 C        -6.3984403912        8.9296996881       -8.1547208163
 C        -0.2248609010        5.6668651362      -12.0594871336
 C        -0.8654731735        7.7479352430      -13.2509540106
 C        -7.6349685172        4.1984388278      -13.9395544756
 C        -7.5959135295        4.4830612665      -11.4290699821
 H        -5.2687590001        1.1276806750      -13.5230261276
 H        -5.5250303608        2.3798373879      -14.6521185869
 H        -6.9755442668        1.4884750170      -13.9909313783
 H        -5.4392976301        6.0822192907      -14.8580774069
 H        -4.3625241957        4.7329528326      -14.5191164342
 H        -4.0172084425        7.3900371567      -12.8681476799
 H        -3.4241702323        7.2608543098      -14.5383727916
 H        -1.9819125449        9.1133310942      -10.8273643186
 H        -0.7463260281        8.2118075943      -10.0589702482
 H        -2.1152076594        9.3198562487       -8.2819317018
 H        -2.4455969245        7.5623526174       -8.1301023306
 H        -5.8348114757        5.5150339734       -8.5608248117
 H        -6.9951465047        6.2360402043       -7.4356875464
 H        -6.3025735906        4.9960091450       -5.6277279567
 H        -5.0251341219        4.3126876801       -6.3099979215
 H        -5.7018768009        1.0992256944       -8.6459143759
 H        -5.6706686001       -0.3480370721       -7.5166170938
 H        -3.4642307584       -0.0032657674       -8.6929295762
 H        -3.3117121152        0.0482578153       -6.9839747359
 H         0.6285586387        0.9306520882       -8.8671987731
 H         0.8817062659        2.5724902300       -9.1789642506
 H         1.5708204689        1.1785368434      -11.1388467229
 H         0.0602005363        2.1462849276      -11.6656415772
 H         0.9536977755       -4.1834844496      -11.4912358557
 H        -0.2030080901       -3.1928898132      -10.6447959936
 H         1.5124096081       -2.8376462829       -8.7380389930
 H         2.7272166547       -3.6409584210       -9.7167988861
 H         4.8277967518       -6.2637838562       -7.3167409986
 H         4.8926057324       -6.6079548166       -8.9583271258
 H         5.9494881870       -8.5683602932       -7.5316775172
 H         4.6552972895       -8.9218501884       -8.6011363392
 H         1.6373126410       -9.6438266105       -5.4792087442
 H         1.6600023526      -11.1541984236       -4.5071048790
 H        -0.1357686484      -11.9328563325       -5.5804367953
 H         1.0196329743      -12.3648405172       -6.9151720088
 H        -3.3772702184      -10.1510482803       -7.9834573830
 H        -3.6613623419      -11.0863997574       -9.5106801055
 H        -4.9836010368       -9.1613980309       -9.3819189816
 H        -4.0119797851       -9.2265519606      -10.7769609604
 H        -5.2929653170       -4.6010854305      -11.5959887939
 H        -6.6675710828       -5.6735684303      -11.5840424575
 H        -5.5333249166       -7.1030917781      -13.2160041624
 H        -4.0231420561       -6.3601071180      -12.9362402514
 H        -9.2473991157       -4.2729547969      -13.4873759587
 H        -9.1898163333       -4.3806932351      -15.1487667474
 H        -8.7313346479       -1.8876048043      -15.3381777445
 H        -9.2049184489       -1.7990566664      -13.6774624590
 H       -12.0802770070        0.9510896978      -12.7889223136
 H       -12.2267612560        1.6252591129      -14.4099718570
 H       -10.8927786332        2.2313897218      -13.3922278951
 H        -9.6823567667       -0.9340283643      -16.8858255673
 H       -10.7843531803        0.3567399413      -17.0290781459
 H       -11.2981039781       -1.2913807571      -17.3672233862
 H       -13.0514994025       -1.0611264948      -14.2405076501
 H       -13.1546224839       -1.2622077862      -15.9971932305
 H       -13.1445297494        0.3112579319      -15.2640969091
 H        -7.1934611078       -4.3741119115      -16.9760009431
 H        -5.9115141302       -5.6009015983      -16.9418429688
 H        -5.7425456184       -3.8506001867      -16.4849688270
 H        -7.7455236215       -6.6090110310      -13.8940752025
 H        -6.9445725560       -7.4018400034      -15.2638491742
 H        -8.3419452892       -6.3357471490      -15.5229228746
 H        -3.7334454154       -5.5781431449       -7.6228463898
 H        -5.3329123232       -5.4172976602       -8.3250240068
 H        -4.0597063456       -4.4546835223       -9.0139066000
 H        -2.0347531606       -5.5812199999      -10.0166432844
 H        -3.0750799038       -4.8589500827      -11.0616497276
 H        -2.5625928227       -6.5514538990      -11.4363154370
 H         0.9827584615      -12.4762871286       -9.1212866085
 H         0.9966572853      -10.8685247060       -9.7799352865
 H        -0.1815296393      -12.0557785116      -10.3613292418
 H        -1.9660877477      -13.2225956422       -9.0270775343
 H        -2.4627384963      -12.4885330066       -7.4486290526
 H        -0.8864317845      -13.3642042875       -7.6921868407
 H         5.8033284308      -10.7262846172       -7.2982395881
 H         5.8438870761      -11.8691012890       -5.9001433651
 H         6.5307120541      -10.1219501437       -5.7705675262
 H         5.3240269078       -9.5557112865       -3.7694549495
 H         4.5220526634      -11.0771695933       -3.8063629156
 H         3.5213983314       -9.7442645960       -3.7634587006
 H         3.5344500704       -4.9155750635       -6.1707026223
 H         2.6353873237       -3.5861428962       -7.0940355280
 H         3.9408146473       -4.5116901401       -7.7723846438
 H         0.4238535382       -6.6610324338       -6.6772027832
 H         0.7358166938       -5.0303965702       -6.1766783017
 H         1.8985294553       -6.3104509423       -5.6628813427
 H        -1.9509294669       -1.5192950809      -13.0441638723
 H        -1.9345208380       -1.7676338267      -11.2965262735
 H        -1.1811905376       -2.9917950472      -12.4468050200
 H         1.4458494181       -0.2160811459      -13.4820706081
 H        -0.1031067696        0.3945026533      -13.6564485639
 H         0.1761849864       -1.3223215440      -14.1802661334
 H        -2.4053500780        4.0358610513       -6.6214285798
 H        -2.1524074247        4.3483085995       -8.2763364885
 H        -0.8033037855        4.2844286572       -7.1930679837
 H        -0.1900000775        2.0968805022       -6.4342314379
 H        -0.4524459737        0.6245378663       -7.2414679638
 H        -1.5203906066        1.0448918198       -6.0181455906
 H        -7.6452929722        1.5547611950       -4.3581375925
 H        -8.2815671564        3.0525113381       -4.8190284299
 H        -6.5472729331        2.7312858804       -4.2711021413
 H        -7.9329804211        1.4599009487       -8.0800906510
 H        -9.0545287781        1.6218454187       -6.6333840895
 H        -8.0401035400        0.2705707629       -6.6102546840
 H        -3.4411412350        9.1873863426       -6.5660011841
 H        -5.0441472398        8.9421451620       -5.7693366307
 H        -4.7541462434       10.4209648158       -6.7829116189
 H        -6.8311161208        8.3386083905       -9.0343325744
 H        -6.2799997475        9.9259665323       -8.5107565310
 H        -7.0866826437        8.7924175100       -7.2782618462
 H         0.1539260305        5.7849226377      -11.0697012541
 H         0.6098161904        5.7578758017      -12.7441735565
 H        -0.5270246689        4.6998733088      -12.2302614561
 H        -1.5927787038        8.4474317937      -13.6320041099
 H        -0.3252040659        7.2763702648      -14.1314882429
 H        -0.1401164330        8.2379854149      -12.6227181329
 H        -6.9860225983        4.0356078142      -14.7924670700
 H        -8.1227471897        5.1606710931      -14.0815829930
 H        -8.4671697629        3.5100684849      -13.8854900025
 H        -7.9232781703        5.5828965232      -11.4717957206
 H        -7.0196811421        4.3919867267      -10.5367012898
 H        -8.4316124053        3.7404633236      -11.2964320815
 Na       -4.0643779109        4.1586777283      -10.6338412985
 Na       -0.1274531979       -7.8694598976       -8.9589487518
