232

 C        -5.9587196223        1.8695977761      -13.7406270750
 C        -6.0603737024        2.7984553406      -12.5625965766
 O        -5.4954707712        2.4922145031      -11.5096290066
 C        -6.8380118015        4.2219443300      -12.7609940202
 C        -5.6080765252        5.2739196385      -12.7367942190
 O        -5.2563037800        5.8009031213      -11.6766406770
 C        -4.9306666897        5.6861906190      -14.0680592820
 C        -3.8055749584        6.6363365426      -13.7549898012
 C        -2.6397896533        5.8829062896      -13.0989409012
 O        -2.6900539571        4.6597242795      -13.1282147512
 C        -1.4477497533        6.6191551608      -12.3169590568
 C        -2.1177038105        7.0160495635      -10.9889169588
 O        -2.8168173287        6.2299169114      -10.5072166236
 C        -1.6945801428        8.2396771353      -10.1458780073
 C        -2.5220671292        8.3538448352       -8.8253337936
 C        -4.0766499823        8.6147306462       -9.0179964365
 O        -4.5460106244        8.9445194191      -10.0790970140
 C        -5.0369569530        8.4599295345       -7.6857259617
 C        -4.9049938850        6.9130619513       -7.2516111729
 O        -3.8644308432        6.5677100723       -6.7124078179
 C        -6.0354409440        5.9395033740       -7.5966402769
 C        -5.9987253216        4.7423018083       -6.6767394565
 C        -6.8129175628        3.5815051132       -7.2160984696
 O        -7.2048367476        3.6434081467       -8.3672826923
 C        -6.9808332144        2.2748935211       -6.3380755979
 C        -5.6047172557        1.4903315667       -6.3052967188
 O        -4.7490440597        1.6006523926       -5.4467657113
 C        -5.3781004512        0.5811813568       -7.5652958349
 C        -3.8166282781        0.5271733768       -7.7857283819
 C        -3.2023408349        1.9360365060       -8.0971133596
 O        -3.9638781489        2.9232081400       -8.4330169952
 C        -1.7174044483        2.2416463587       -7.9223091637
 C        -1.0206807388        2.2496146168       -9.3687096340
 O        -1.6210636921        2.8998905153      -10.2150138973
 C         0.4300894046        1.8793113166       -9.5598146027
 C         0.5837251804        1.2696918092      -10.9781108301
 C        -0.3809534761        0.1402149828      -11.1217270372
 O        -1.3212424831        0.0804362682      -10.3482522638
 C        -0.1665310383       -1.0665063151      -12.1626563336
 C         1.0656434374       -1.8690447761      -11.4437318024
 O         2.2508729224       -1.5622672366      -11.4071576857
 C         0.8098307165       -3.3255403038      -10.7868316173
 C         1.6420874471       -3.6573878414       -9.6067248717
 C         1.2256953268       -4.9583218468       -8.8829910921
 O         0.2293592368       -5.5587930157       -9.2152826304
 C         2.0728751030       -5.5029218729       -7.6844677895
 C         2.8671261603       -6.8336287529       -8.1702706928
 O         2.3028302674       -7.8115375354       -8.6576489761
 C         4.3308809609       -6.8832855926       -7.8947369037
 C         4.7472992731       -8.3504799497       -7.6840572105
 C         4.1320914408       -8.7806763736       -6.4109393775
 O         3.1940677204       -8.1264017414       -5.9808221674
 C         4.3993875811      -10.1754041856       -5.7508736173
 C         3.1278906725      -11.1211415484       -6.2294705779
 O         3.3103547184      -12.0331858956       -6.9815135746
 C         1.8209837880      -10.8878615203       -5.6092508506
 C         0.7068636873      -11.6968742239       -6.2866423039
 C        -0.0989944873      -10.6993963381       -7.3127471597
 O        -0.1760588979       -9.5197884834       -7.1354246442
 C        -0.8206558065      -11.3580148496       -8.6418020172
 C        -1.6764734256      -10.2440460519       -9.2715660202
 O        -1.2223765370       -9.4366813503      -10.0548353381
 C        -3.1769372864      -10.3818861769       -9.1716598411
 C        -3.8784039835       -9.1642047487       -9.7900659209
 C        -3.3246724938       -7.7839823840       -9.2378760434
 O        -2.4416248936       -7.8251596223       -8.3870591956
 C        -3.9961855464       -6.2825515527       -9.7648011055
 C        -5.4447119160       -6.6165074301      -10.5182871961
 O        -5.9761255830       -7.6941045449      -10.3364992946
 C        -5.8684052816       -5.5690674112      -11.5963424855
 C        -5.1783815314       -6.2298568794      -12.8430864624
 C        -5.1246088097       -5.4538340053      -14.2308622711
 O        -4.0668619231       -5.2652730474      -14.7869869121
 C        -6.4933152521       -5.1939033694      -14.9334791509
 C        -7.2560691959       -3.9772175199      -14.3020414304
 O        -6.6306194057       -3.1648130839      -13.6445700469
 C        -8.7994715335       -3.8521343782      -14.4528719735
 C        -9.2466876457       -2.4149788639      -14.5023625005
 C       -10.8037309701       -2.1849193232      -14.7504375294
 O       -11.5142574143       -3.1446420947      -14.6607218276
 C       -11.2892985820       -0.7476768899      -15.2391239822
 C       -10.5964662692        0.4368174678      -14.4017136730
 O        -9.3942912308        0.5382824779      -14.2674687990
 C       -11.4805690251        1.4134212948      -13.6137493139
 C       -10.7717990865       -0.6262746888      -16.7031387298
 C       -12.9314228257       -0.7869076881      -15.2666857657
 C        -6.2007160801       -4.7559562297      -16.4245124740
 C        -7.4113025944       -6.4857249542      -14.8681367558
 C        -4.3539910549       -5.3758877196       -8.4887416535
 C        -2.8443963114       -5.7253831086      -10.6783818378
 C         0.4250566164      -11.6840678314       -9.5152376590
 C        -1.6126272356      -12.4978817206       -8.0307988512
 C         5.7863011439      -10.7838984320       -6.0559583648
 C         4.4079072295      -10.0135174185       -4.1745515023
 C         3.0463360889       -4.3522205901       -7.1467763792
 C         1.1178992844       -5.9317657388       -6.5585645066
 C        -1.4527536192       -1.9003772701      -12.3395412625
 C         0.3269296718       -0.6107772398      -13.5887367516
 C        -1.6783827113        3.7609982551       -7.4183469308
 C        -1.0164630078        1.3166747696       -6.8454243003
 C        -7.2842669584        2.5592228855       -4.8554972115
 C        -8.1391406381        1.3303448512       -6.9236400442
 C        -4.5177092932        9.3630266510       -6.5075073057
 C        -6.4595891595        8.9292186257       -8.1478730775
 C        -0.4583681911        5.4712569161      -11.8578985968
 C        -0.8396882716        7.7671876330      -13.1797609529
 C        -7.7173336184        4.4291580675      -14.0517423403
 C        -7.6463457635        4.4565228850      -11.4571010234
 H        -5.2957411707        1.0938947636      -13.4319277013
 H        -5.4967390572        2.3157045439      -14.5949347987
 H        -6.9872743753        1.4973821454      -13.8711846390
 H        -5.6748145759        6.0151297924      -14.8641688715
 H        -4.5176583969        4.7601272359      -14.4683894979
 H        -4.0954699484        7.4317698932      -13.0125968344
 H        -3.3070023676        7.1155079768      -14.6245766439
 H        -1.6983499295        9.2020504559      -10.5843052637
 H        -0.6734089572        7.9425901984      -10.0318036205
 H        -2.1457856803        9.2065777268       -8.3218797094
 H        -2.4811051230        7.5443425624       -8.1015975018
 H        -5.8328402237        5.5725369841       -8.6057241911
 H        -6.9750653189        6.3720849690       -7.5413442608
 H        -6.0698406234        4.9831352235       -5.6509765378
 H        -4.9022024937        4.3150338983       -6.6021060088
 H        -5.9203693008        0.9563396701       -8.4683905470
 H        -5.7174713462       -0.4177556005       -7.3498999170
 H        -3.5620684939       -0.2356959088       -8.5164023619
 H        -3.3202214916        0.0864442057       -6.8895856709
 H         0.7352026707        1.2706435018       -8.7492620568
 H         0.9266436810        2.8536046182       -9.3689543296
 H         1.6788914591        0.9489778497      -11.1927106877
 H         0.3555201835        2.1211103689      -11.6839361949
 H         1.0301492390       -4.0447085383      -11.6173197432
 H        -0.2538571017       -3.3627897988      -10.6078474691
 H         1.5922869611       -2.8965134201       -8.8909952226
 H         2.7462368984       -3.6111982562       -9.8559031129
 H         4.5804412690       -6.3657130589       -6.9667302627
 H         5.0002937441       -6.5006173175       -8.5987358178
 H         5.8130626231       -8.6486726878       -7.6837263142
 H         4.3555289708       -8.8654883334       -8.5900879926
 H         1.5836645882       -9.7796149753       -5.4609782334
 H         1.8994957936      -11.3654254384       -4.5387380968
 H         0.0168149218      -11.9798432670       -5.5836726056
 H         0.9639871835      -12.6242710745       -6.8758742621
 H        -3.4373830471      -10.4265658339       -8.1269200608
 H        -3.4620808197      -11.3685613827       -9.6436303050
 H        -4.9821344111       -9.1435658185       -9.7563493214
 H        -3.5825124990       -9.1615901385      -10.8029116054
 H        -5.4035477254       -4.5574304077      -11.3725491292
 H        -6.9777689341       -5.4870403341      -11.6500226324
 H        -5.7109227110       -7.1194599144      -13.1689475316
 H        -4.1718418236       -6.5335157529      -12.6774594270
 H        -9.1767566987       -4.4050240220      -13.5819146707
 H        -9.1747647642       -4.3899021650      -15.3373746172
 H        -8.7264719305       -1.8470518015      -15.3681000621
 H        -9.0191204207       -1.9155043942      -13.6366316221
 H       -11.5447511732        0.8843523978      -12.6673847180
 H       -12.4658996325        1.6228663434      -14.0913837090
 H       -10.8016894966        2.2669289702      -13.4754081517
 H        -9.7140798632       -0.9974623681      -16.8336920800
 H       -10.7253718926        0.4143010411      -16.9912288298
 H       -11.3832524658       -1.2049961483      -17.3543851894
 H       -13.2303226250       -0.7750843519      -14.2213719746
 H       -13.2640927720       -1.6584097126      -15.8325822647
 H       -13.3799743149        0.1036187994      -15.7722456882
 H        -7.1541512780       -4.5768819903      -16.9843596617
 H        -5.6616331153       -5.4617026562      -16.9737973004
 H        -5.7825544441       -3.8061212524      -16.4407665708
 H        -7.5348600381       -6.8041451814      -13.8101848750
 H        -6.8591124490       -7.3489307204      -15.2909944084
 H        -8.3397779931       -6.4451608819      -15.3490917216
 H        -3.6605764927       -5.5732966932       -7.6657701085
 H        -5.2966839539       -5.7205123162       -8.1196922077
 H        -4.4254257644       -4.3334553239       -8.7277959335
 H        -2.1578198650       -5.2324649179      -10.0204680970
 H        -3.0588048869       -4.9346496646      -11.3827576049
 H        -2.2273677131       -6.5046588264      -11.2191321502
 H         1.0757216446      -12.4577641620       -9.0745302223
 H         0.9862292866      -10.7881920444       -9.4705864564
 H         0.2633550076      -11.9266823260      -10.5632012972
 H        -2.4118505157      -12.8811035724       -8.6954820359
 H        -2.1574379488      -12.1917318687       -7.1240669621
 H        -1.0446816598      -13.4358350178       -7.9196418922
 H         5.8919130551      -11.0591458849       -7.1154851132
 H         5.8147900411      -11.7151942855       -5.4966868200
 H         6.5422474345      -10.0730077607       -5.7826860487
 H         5.2649828269       -9.4145050105       -3.8182266366
 H         4.5320209763      -11.0144193935       -3.8004558362
 H         3.4161351138       -9.7498071871       -3.8114308269
 H         3.6539939992       -4.6962004365       -6.2911127065
 H         2.4245935617       -3.5094925381       -6.9104997766
 H         3.7053735681       -4.0985058844       -7.9791698179
 H         0.3755776449       -6.6810021251       -6.7805223393
 H         0.4972579108       -5.0420744741       -6.2975719112
 H         1.6408980863       -6.2714015575       -5.6983520966
 H        -2.0135696796       -1.4993589059      -13.2389998309
 H        -2.1007044147       -1.6801430011      -11.5220517905
 H        -1.3588559605       -3.0190367638      -12.5311652756
 H         1.2051940850       -0.0552303314      -13.3207707293
 H        -0.2935105298        0.0630583545      -14.0409243280
 H         0.5288912725       -1.4975199315      -14.2366484243
 H        -2.2806542287        4.0025478745       -6.5592333665
 H        -1.9855418219        4.4966507938       -8.2011644364
 H        -0.6817940953        4.1324265445       -7.1884777264
 H        -0.2552676414        1.7659481122       -6.1999593571
 H        -0.5103678408        0.4570319258       -7.3148824427
 H        -1.7467659602        0.8352034907       -6.1757423914
 H        -7.0204655259        1.7301597573       -4.2380284798
 H        -8.2849876554        2.8061441791       -4.7068412908
 H        -6.5452006321        3.2560397046       -4.4667721625
 H        -8.0293333252        1.2313266010       -8.0111283860
 H        -9.1141378169        1.7447426575       -6.5971658616
 H        -8.0935658352        0.4066589757       -6.3919626225
 H        -3.5089256047        9.1804205395       -6.2751622884
 H        -5.2396230636        9.2499074659       -5.7127534501
 H        -4.6537970093       10.3898048001       -6.9415323474
 H        -6.8964218427        8.3149440290       -8.9342880598
 H        -6.3284485977        9.9118895730       -8.5871437995
 H        -7.1484451572        8.9167674992       -7.2616523387
 H        -0.3541727730        5.4269516235      -10.7379422059
 H         0.5143148834        5.4471078941      -12.2854605223
 H        -0.8925761704        4.5266849550      -12.2453654295
 H        -1.5406623489        8.5196739517      -13.5458081895
 H        -0.3978648053        7.2432758580      -14.0856615017
 H        -0.0448667243        8.2287293843      -12.6023167752
 H        -7.3980728406        3.9227893843      -14.9577528450
 H        -7.8434753156        5.5301974881      -14.2727718302
 H        -8.7207468388        4.1662653616      -13.7589537752
 H        -8.0409966220        5.4241312046      -11.3363907097
 H        -6.9450349914        4.3077684357      -10.6123690405
 H        -8.3212917727        3.6402283816      -11.3116159345
 Na       -3.8795032773        4.2086169387      -10.6555246143
 Na       -0.0978284811       -7.9096487191       -8.9754582148
