232

 C        -6.4316881213        1.7957769175      -13.6100723176
 C        -6.0254059616        2.9663633876      -12.6341335886
 O        -5.0374175048        2.8042420788      -11.9211107013
 C        -6.8215093119        4.3283868112      -12.7896321254
 C        -5.7459653116        5.4874105213      -12.6901371635
 O        -5.2315681109        5.6325497593      -11.5896849710
 C        -5.2264297251        6.1802203477      -13.9333376467
 C        -3.7680255095        6.6591636308      -13.8072430252
 C        -2.7613108875        5.7298217084      -13.0768449394
 O        -2.8010301907        4.5115013095      -13.1876115678
 C        -1.7841950202        6.3998401373      -12.1454334058
 C        -2.4351645920        6.8079211960      -10.7500440605
 O        -3.1954078881        6.1419526066      -10.1428005900
 C        -1.9424934304        8.2306708985      -10.2451687270
 C        -2.4478224530        8.6359576236       -8.8446221712
 C        -3.9210205034        8.7964525751       -9.0058625561
 O        -4.3259361720        9.3694285060       -9.9944637949
 C        -4.9197835085        8.5337194802       -7.7986977664
 C        -4.8621763411        7.0301717989       -7.4287423944
 O        -3.8473717773        6.5528931039       -6.9560888161
 C        -5.9732390363        6.0548873505       -7.7340027355
 C        -5.9033557279        4.8003584273       -6.8263865394
 C        -6.5904330580        3.5719166372       -7.3333790840
 O        -6.8443475886        3.3693423458       -8.5034050663
 C        -6.8169651810        2.3634813208       -6.2324053814
 C        -5.4581813824        1.6667811265       -6.3274491753
 O        -4.5315289083        1.8393722698       -5.5422579199
 C        -5.2308257307        0.8233954554       -7.5565720901
 C        -3.7098716920        0.6265300704       -7.7836146927
 C        -3.1242092049        2.0047869339       -8.3512317099
 O        -3.8173792543        2.8556917161       -8.8433538952
 C        -1.5334139795        2.1764626089       -8.1762584460
 C        -0.9028224244        2.4162593162       -9.5575730600
 O        -1.4951900514        2.8102429132      -10.5648134835
 C         0.6032310258        2.0244037575       -9.7969317746
 C         0.6712287077        1.1497186426      -10.9955433160
 C        -0.3758350879        0.0051804370      -11.0394878197
 O        -1.1560270618       -0.2073058065      -10.1160898643
 C        -0.2252668081       -1.0347078181      -12.2478416081
 C         0.8686652154       -2.0130833122      -11.4771330872
 O         2.0526548456       -1.7606169829      -11.5135080876
 C         0.2604916811       -3.1919094319      -10.6272212873
 C         1.3604358084       -3.6577355897       -9.7055238924
 C         1.0207902115       -4.8648353955       -8.9193185403
 O         0.1493870565       -5.6437712402       -9.3242114692
 C         1.8725476115       -5.2665720374       -7.6875695566
 C         2.7367128129       -6.6642070265       -8.1721816919
 O         2.1664834898       -7.5323601973       -8.7811260239
 C         4.2268546626       -6.7523433422       -7.9339076614
 C         4.5986893247       -8.1997979725       -7.5917584266
 C         3.9079084965       -8.6820338917       -6.2914084222
 O         3.0009238319       -8.0220617770       -5.7920363793
 C         4.3330894378      -10.1739726165       -5.7600627132
 C         3.1550001061      -11.2757423045       -6.1909013838
 O         3.4682108904      -12.2011010683       -6.8805466095
 C         1.7486977446      -11.1275476347       -5.5272749059
 C         0.7445807473      -11.7693161355       -6.3394332894
 C         0.0706591904      -10.8185597413       -7.3506057596
 O         0.0990838995       -9.6255303493       -7.2979768022
 C        -0.6727662022      -11.5305493340       -8.5848628524
 C        -1.4410065598      -10.3544281021       -9.4200338367
 O        -0.8231074492       -9.5603549471      -10.0902780152
 C        -2.9525744559      -10.2246262126       -9.2915877943
 C        -3.8332813136       -9.0557144617       -9.8768735780
 C        -3.5190733069       -7.7285866347       -9.1337357690
 O        -2.5477368877       -7.7841984355       -8.2601519979
 C        -4.2437494006       -6.3973663897       -9.5060660849
 C        -5.5481726735       -6.7614696078      -10.2480746856
 O        -6.3180210836       -7.6183133012       -9.8244772051
 C        -5.7967512485       -6.0068757642      -11.6551281685
 C        -5.3584260612       -6.7334897493      -12.9253735519
 C        -5.1806734114       -5.6752677742      -14.0680777809
 O        -4.1786936070       -5.0265325664      -14.2646225591
 C        -6.4251163649       -5.3092861806      -14.8719705885
 C        -7.1700386028       -4.0417137787      -14.3281695814
 O        -6.6522266388       -3.3658159232      -13.4628672982
 C        -8.5675532302       -3.6244930720      -14.9182690855
 C        -9.0176871631       -2.1852841635      -14.5117946358
 C       -10.5993385840       -2.0474589644      -14.5113193164
 O       -11.3060135994       -2.8632443534      -13.9611867606
 C       -11.2378896935       -0.7699289805      -15.2773113277
 C       -10.6112539607        0.5172757100      -14.6084546295
 O        -9.4440963021        0.8040458204      -14.6810925770
 C       -11.4454581989        1.2739780089      -13.5668631411
 C       -10.7283502652       -0.7153860516      -16.7531820778
 C       -12.7821133866       -0.9483851255      -15.0958439017
 C        -5.9425542368       -4.8962905129      -16.3186344571
 C        -7.4362210614       -6.4715745066      -15.0069640886
 C        -4.7849070353       -5.6486955064       -8.1670247624
 C        -3.2597708086       -5.7676669789      -10.4270129148
 C         0.4175942464      -11.9534880024       -9.6027978370
 C        -1.4570760633      -12.7374557038       -8.1927022448
 C         5.7554175386      -10.7481666023       -6.1100357942
 C         4.2690451180      -10.1451816622       -4.1865250741
 C         2.7551097777       -4.1292834653       -7.0755354245
 C         0.9576705845       -5.6732540748       -6.5737659423
 C        -1.6454884106       -1.6117911688      -12.4831091986
 C         0.3257241845       -0.3716234091      -13.5092709592
 C        -1.3565369121        3.4837297344       -7.4535801076
 C        -0.8559198209        1.0033919538       -7.4173993258
 C        -7.0655268333        2.9235526367       -4.7893983086
 C        -8.1327620346        1.5972473709       -6.6986790940
 C        -4.3587369940        9.4108311334       -6.6129299034
 C        -6.3160218599        9.0201498108       -8.2886832800
 C        -0.6111497560        5.3326476300      -11.8057023157
 C        -1.1727003763        7.5795793915      -12.8243595829
 C        -7.7145218795        4.1899664028      -14.0249604691
 C        -7.7272141538        4.3040335888      -11.5041320386
 H        -5.8746488433        0.8703948529      -13.4194910071
 H        -5.9731479480        2.1381585440      -14.5581351862
 H        -7.5261293889        1.5666688008      -13.6426614356
 H        -5.9087942040        6.9516558663      -14.2964634992
 H        -5.2279438725        5.4101481964      -14.7312053942
 H        -3.6303897166        7.6665038191      -13.4671671342
 H        -3.3419254951        6.6251161612      -14.7884079812
 H        -2.3019711157        8.8676521689      -11.0849279354
 H        -0.8535115735        8.3154764196      -10.2337826964
 H        -2.0973583690        9.6532752428       -8.5037651102
 H        -2.0881866336        7.9504355808       -7.9761216224
 H        -5.8822945107        5.6109182529       -8.7560411697
 H        -6.9688554978        6.5194284469       -7.6056104914
 H        -6.0538496581        4.9540727236       -5.7730351262
 H        -4.8608472388        4.5251197473       -6.8445570338
 H        -5.7430056289        1.2604543498       -8.4658725444
 H        -5.7261175320       -0.1326422867       -7.3602755378
 H        -3.6321130821       -0.1183539797       -8.6011396131
 H        -3.1451641852        0.0871681777       -7.0531667718
 H         0.9565396576        1.4903244410       -8.9489310925
 H         1.2901092022        2.8532020294       -9.8836801898
 H         1.7388247303        0.7653408784      -10.9120823311
 H         0.8200434118        1.7860207353      -11.8821140825
 H        -0.1720670857       -3.9101482244      -11.2577490617
 H        -0.5570539901       -2.6804304474      -10.0507960466
 H         1.8694984432       -2.7650731477       -9.1850802493
 H         2.2094258194       -4.0958023609      -10.3891640918
 H         4.7561120126       -6.2225204982       -7.1305491240
 H         4.7403596338       -6.4944040335       -8.8716187334
 H         5.6621881577       -8.3644568410       -7.6545896097
 H         4.1914391504       -8.8883655774       -8.3207862770
 H         1.5341858926      -10.1543147552       -5.2548196552
 H         1.8391087174      -11.7391340645       -4.6647192382
 H        -0.1717387373      -12.2614239787       -5.8980617327
 H         1.1130548640      -12.6434681153       -6.9441646115
 H        -3.3159180167      -10.2494970267       -8.2395924718
 H        -3.3108927852      -11.1685133453       -9.7843033833
 H        -4.8072765446       -9.3534912889       -9.6172552722
 H        -3.8203426519       -8.9378913792      -10.9691035915
 H        -5.3123925196       -5.0973932612      -11.5672701325
 H        -6.8384517322       -5.8225628516      -11.7789714640
 H        -6.1302294670       -7.4227952769      -13.2066857293
 H        -4.4002569761       -7.2930482447      -12.9126164081
 H        -9.3207372131       -4.3235237869      -14.6628729356
 H        -8.4238046347       -3.6706424176      -15.9847798257
 H        -8.6612728398       -1.3199885455      -15.1215263607
 H        -8.7516228974       -2.0205793435      -13.5086939170
 H       -11.5335403296        0.5409849507      -12.8071327131
 H       -12.3757897879        1.4650212652      -14.0512972264
 H       -10.9395982540        2.1654539382      -13.2131189001
 H        -9.7343626009       -0.1823261243      -16.8313350574
 H       -11.4346520448       -0.0942921851      -17.2695394394
 H       -10.7188574030       -1.6611940566      -17.2397385489
 H       -12.9350323987       -0.8629769372      -14.0863727889
 H       -12.9963798587       -1.9668791100      -15.4333674141
 H       -13.4318052087       -0.3273270463      -15.6952866239
 H        -6.6787145601       -4.7463613910      -17.1474908445
 H        -5.4044812020       -5.8111176624      -16.7052204066
 H        -5.2609286182       -4.0351698258      -16.2434076353
 H        -7.9093358607       -6.5261690663      -14.0135239166
 H        -7.0906519384       -7.5303770154      -15.1573418329
 H        -8.1327285442       -6.1967495665      -15.7564013341
 H        -4.1044455974       -5.0567349905       -7.5158985800
 H        -5.2068067229       -6.4908282447       -7.5640607926
 H        -5.5915238230       -5.0056829727       -8.5114956127
 H        -2.3006062707       -6.1624479168      -10.1983540092
 H        -3.1839909298       -4.6890259355      -10.4764389750
 H        -3.2970722407       -6.0490629303      -11.5171223203
 H         1.2927209032      -12.4850225687       -9.2399561458
 H         0.8008142812      -11.0605716280      -10.1144061830
 H        -0.0967656664      -12.6341081746      -10.3091556419
 H        -1.7147742450      -13.4870938918       -8.9496493311
 H        -2.3609948260      -12.5117664335       -7.6676747690
 H        -0.9211472265      -13.4238884561       -7.5495458439
 H         5.8454639634      -10.9840600259       -7.1992170447
 H         6.0234330855      -11.6122688612       -5.4860497558
 H         6.4099299548       -9.9013057216       -5.9110283393
 H         5.1472277133       -9.6534074155       -3.7848577771
 H         4.2667648103      -11.1704531766       -3.8805122296
 H         3.3310468486       -9.7569044450       -3.8383019742
 H         3.0510722290       -4.4543004786       -6.0554304640
 H         2.1319847416       -3.2431673190       -6.8731784476
 H         3.5306906404       -3.9374914007       -7.7680683766
 H         0.2182625101       -6.5002930692       -6.6304057971
 H         0.3835873145       -4.8016695982       -6.2492151799
 H         1.6357600331       -6.0717292037       -5.7948432349
 H        -2.3892659499       -0.8179570131      -12.5051865054
 H        -1.9952305021       -2.2443222772      -11.7675443798
 H        -1.5680947591       -2.2078668443      -13.4331167452
 H         1.2915050921        0.0778304105      -13.0975921303
 H        -0.3533661510        0.2693287363      -14.0022942796
 H         0.6902249126       -1.1683108345      -14.2289137960
 H        -1.6357750731        3.3898131678       -6.4346812396
 H        -1.9986358381        4.2987104155       -7.8805435299
 H        -0.3820435975        3.9728300355       -7.5040110063
 H         0.1942241560        1.2873681877       -7.4852110634
 H        -0.9442109126        0.0095800407       -7.8546380073
 H        -0.9400575610        0.9896614148       -6.3352242204
 H        -7.3492669054        2.1082837887       -4.0741292675
 H        -7.8231145467        3.7060459022       -4.7426664493
 H        -6.0769804269        3.3238825555       -4.3592169376
 H        -7.9190228941        1.1328089569       -7.6885770630
 H        -8.8154952445        2.4211790500       -6.8042450672
 H        -8.4374537017        0.8467574378       -5.9634088681
 H        -3.6069852304        8.7992729728       -6.1890852807
 H        -5.2099021534        9.6127763361       -5.9522067620
 H        -3.9965194214       10.4056479869       -6.9909593514
 H        -6.4831146897        8.6229412779       -9.3011034398
 H        -6.1986361696       10.0604109223       -8.3479582277
 H        -7.1698029427        8.8581570322       -7.5831645482
 H        -0.3676827372        5.3758378995      -10.7358436178
 H         0.2734440736        5.4156689519      -12.3892919698
 H        -0.9570656609        4.3601397202      -11.9869785278
 H        -1.8206400619        8.3846005086      -13.0347184632
 H        -0.7497069201        7.3098776798      -13.8400882696
 H        -0.4305450586        7.9404491941      -12.1704700877
 H        -7.2400203942        4.4403729276      -14.9713063297
 H        -8.5671992449        4.8799889912      -13.9492731718
 H        -8.0557139566        3.1660003675      -14.0452137046
 H        -8.1496214220        5.2998982362      -11.2782546264
 H        -7.1474798656        4.1547732050      -10.5844546455
 H        -8.3386306870        3.3761718698      -11.5503031803
 Na       -3.4390988323        3.9093892116      -10.6854094773
 Na       -0.2171877459       -7.8599412284       -8.6608204234
