232

 C        -6.4500783031        1.6865217132      -13.4588551535
 C        -5.9067767059        2.9393087976      -12.8094635732
 O        -4.9097883096        2.8617245677      -12.1406174389
 C        -6.7908477985        4.2157670549      -12.8215144141
 C        -5.7515068729        5.3540909466      -12.7097412252
 O        -5.2625049175        5.6405456914      -11.6158568579
 C        -5.3178973305        6.1807594938      -13.9311650582
 C        -3.8300406391        6.6608380679      -13.7031445331
 C        -2.9392949221        5.6824492880      -12.9340966108
 O        -2.9561831749        4.4717066141      -13.0939308200
 C        -1.7763701320        6.3971909188      -12.0307264069
 C        -2.3503544092        6.7415641937      -10.6785692466
 O        -3.0738827404        6.0298417788      -10.0482175537
 C        -1.8999748722        8.1519326409      -10.2726796060
 C        -2.3923678799        8.6585255489       -8.9056500205
 C        -3.9042257711        9.0268696142       -9.0027685047
 O        -4.4456221272        9.4800529036      -10.0264423025
 C        -4.8787275579        8.6005376133       -7.8461908202
 C        -4.8232284739        7.0465970608       -7.5292965960
 O        -3.7765298046        6.6354332811       -7.0439787575
 C        -5.9287633054        6.0176066681       -7.8496771789
 C        -5.8300280625        4.8616346502       -6.9140852395
 C        -6.5089772300        3.5900848624       -7.2986516942
 O        -6.7839374084        3.3596518095       -8.4685258643
 C        -6.8090260258        2.4837874036       -6.2442409733
 C        -5.4472216818        1.6666851279       -6.3222990171
 O        -4.5524413598        1.9405954530       -5.5686961175
 C        -5.2621775023        0.8922521714       -7.6583720723
 C        -3.7225479180        0.6763668345       -7.7875716882
 C        -2.9558360543        1.8551288086       -8.3219109998
 O        -3.6885189366        2.8047038921       -8.8004984406
 C        -1.4596124024        2.1059875328       -8.2271580055
 C        -0.8301069461        2.2931830280       -9.6606998492
 O        -1.4552235250        2.7702641331      -10.5971269609
 C         0.6764249602        2.0143992789       -9.8719518547
 C         0.6967927800        1.0753987433      -11.1144875776
 C        -0.3134460179        0.0370199755      -11.0157053589
 O        -1.1018892731       -0.2637846405      -10.1381352511
 C        -0.1830018473       -0.9973362919      -12.2277018550
 C         0.7150160107       -1.9649611446      -11.5150374414
 O         1.9535053271       -1.9464446215      -11.5978411782
 C         0.2212363186       -3.1278319414      -10.5024208980
 C         1.3770463594       -3.6655523417       -9.7183410813
 C         0.9889612558       -4.9327855506       -8.9371832676
 O         0.1272756154       -5.6841035420       -9.3175349356
 C         1.8747125712       -5.3642765411       -7.6246816572
 C         2.6593678388       -6.5904019427       -8.1798882340
 O         2.0718131918       -7.5066175078       -8.7848919747
 C         4.1088543634       -6.6839467250       -7.8531405378
 C         4.5204642835       -8.1665657461       -7.5425277950
 C         3.8313637348       -8.7166050819       -6.2943157814
 O         2.9489601646       -8.0942043185       -5.7580055747
 C         4.3056369452      -10.0878321737       -5.7140587995
 C         3.1859178384      -11.1541423867       -6.0911109849
 O         3.4189384686      -12.0553893532       -6.8489808964
 C         1.7821299300      -11.0773175029       -5.4588416313
 C         0.7090904335      -11.9331607775       -6.3159551600
 C         0.0783219763      -10.9660941563       -7.5526397846
 O         0.2982254406       -9.8062174607       -7.2830391331
 C        -0.6292353709      -11.5681207751       -8.7882540725
 C        -1.3805406690      -10.3543352068       -9.4559906241
 O        -0.7302130990       -9.5303739611      -10.0497977927
 C        -2.9507568917      -10.3801165112       -9.2065174861
 C        -3.7463059948       -9.1412142686       -9.8241971485
 C        -3.5384369989       -7.7993291729       -9.0398691524
 O        -2.5912154531       -7.7734263686       -8.2710517059
 C        -4.2924903907       -6.5755383271       -9.4062553594
 C        -5.5555760190       -6.8630427014      -10.2466106949
 O        -6.4340189668       -7.4769193996       -9.7232814346
 C        -5.9526057924       -6.2287730250      -11.6268429199
 C        -5.3997182553       -6.8301154443      -12.9847888494
 C        -5.2824626647       -5.6850366830      -14.0099934248
 O        -4.2427414489       -5.0456088386      -13.9750008777
 C        -6.5071155272       -5.2405120805      -14.9850418518
 C        -7.1375898026       -3.9926746711      -14.3771208204
 O        -6.6616883126       -3.5093207515      -13.3620313475
 C        -8.4588306072       -3.5388158160      -15.0663213906
 C        -8.9040675688       -2.1903577911      -14.5969801327
 C       -10.4611010914       -2.0027837215      -14.4516802415
 O       -11.1366564694       -2.7248013257      -13.8001028297
 C       -11.0993188470       -0.8183112464      -15.2174421765
 C       -10.5792229255        0.4758073714      -14.5103133899
 O        -9.4798163713        0.9020259807      -14.8374715002
 C       -11.5533225812        1.2805888785      -13.4704104239
 C       -10.7697253842       -0.9508596537      -16.7022336853
 C       -12.6327199242       -0.9114943945      -15.1520407900
 C        -5.8768817482       -4.9034819476      -16.4233587091
 C        -7.5836350653       -6.4103103471      -15.0568412153
 C        -4.7664118566       -5.7034477261       -8.1419037596
 C        -3.3094227681       -5.6031778304      -10.1244422421
 C         0.6067503462      -12.0726824378       -9.7172089222
 C        -1.5938495366      -12.6235818606       -8.2785086238
 C         5.6614335874      -10.5564460225       -6.2023156332
 C         4.3389125338      -10.2503301391       -4.1521555932
 C         2.7943283710       -4.1413962153       -7.2564909320
 C         0.8707999741       -5.7261327073       -6.4470489545
 C        -1.6202879064       -1.4658018440      -12.5516843223
 C         0.2961151137       -0.3324157110      -13.4871944971
 C        -1.3947316414        3.4773783294       -7.5434990408
 C        -0.8522877127        0.9148318876       -7.4698542835
 C        -6.9663799203        2.9618159593       -4.7470395521
 C        -7.9790194177        1.5681692472       -6.6202421814
 C        -4.3948931641        9.4143949003       -6.5813375839
 C        -6.2563025233        9.1534278614       -8.2759902259
 C        -0.6390111896        5.3314488508      -11.7468145538
 C        -1.2961247102        7.6287273368      -12.8800666897
 C        -7.7435361219        4.4009863834      -14.0160759105
 C        -7.7124907632        4.3085984417      -11.5377259977
 H        -5.8585741879        0.8252326572      -13.1694744880
 H        -6.5276583173        1.6656608367      -14.5270922960
 H        -7.4153279292        1.6096827851      -12.9251863619
 H        -5.9713306542        7.1389315303      -13.9893667451
 H        -5.4572552735        5.6917139576      -14.8980143419
 H        -3.8412559392        7.4855415963      -12.9673624020
 H        -3.3496440287        7.0962003417      -14.5880570603
 H        -2.0990210818        8.7576255364      -11.1048918827
 H        -0.8393618304        8.1065085801      -10.1845066698
 H        -1.8867638310        9.6347601784       -8.6870712391
 H        -2.0997200514        8.0522104201       -8.0150001608
 H        -5.8372192551        5.6623683369       -8.8905621366
 H        -6.8965014369        6.3697539651       -7.7013503275
 H        -6.2354961312        5.1549447677       -5.9978418911
 H        -4.7093171414        4.7041098025       -6.6618245177
 H        -5.7820257183        1.4871510445       -8.4524734347
 H        -5.8321822858       -0.0434739732       -7.5503894811
 H        -3.3831897643       -0.1774211126       -8.3176878088
 H        -3.3450083542        0.3799688570       -6.7769770001
 H         1.1027117265        1.6264305511       -9.0005228316
 H         1.1132558049        3.0032490974       -9.9928150900
 H         1.7893761437        0.7605649786      -11.3815392968
 H         0.4381955300        1.6957854685      -12.0533482130
 H        -0.2394903232       -3.9589263109      -11.0974598977
 H        -0.5143229843       -2.7740997332       -9.8141118209
 H         1.7821649672       -2.8886508364       -9.1369341570
 H         2.2741099236       -3.9851832204      -10.4481435230
 H         4.4678907283       -6.1822605558       -6.9394457989
 H         4.6795905100       -6.3445088608       -8.6723386800
 H         5.6066183693       -8.2304109650       -7.4021269061
 H         4.3151334430       -8.8598870136       -8.3789674200
 H         1.4947186626      -10.0115458029       -5.3539989967
 H         1.8355279623      -11.5631789337       -4.4375016137
 H        -0.1485723111      -12.2823316683       -5.8826802335
 H         1.1310049093      -12.9060077552       -6.7676756325
 H        -2.9968721349      -10.2024761883       -8.1244091575
 H        -3.4690301246      -11.3734803484       -9.4559561560
 H        -4.7669279830       -9.3883081702      -10.0662236810
 H        -3.2950771551       -8.9098355273      -10.7082094990
 H        -5.6756608035       -5.1371249883      -11.5199098251
 H        -7.0054212268       -6.2876903203      -11.6460734177
 H        -5.9845739577       -7.6629724378      -13.3524062830
 H        -4.3914210191       -7.1586053909      -12.9197924724
 H        -9.1554656496       -4.2875658592      -14.8341798958
 H        -8.3070033791       -3.5125657007      -16.0998468305
 H        -8.5943621984       -1.3696744228      -15.3003880796
 H        -8.5044668527       -1.9956532499      -13.6742006483
 H       -11.9205399185        0.5505999422      -12.7987967767
 H       -12.3139844898        1.8262952248      -14.0785630055
 H       -10.9371700240        1.9618226734      -12.9453067720
 H        -9.7969495284       -0.5727247515      -17.0158415887
 H       -11.5593756081       -0.5070268084      -17.2727872641
 H       -10.8711623591       -1.9839982348      -16.9376067706
 H       -12.8801163839       -1.2791064081      -14.1308400295
 H       -12.9047220910       -1.6166557701      -15.8502192750
 H       -13.1354350896       -0.0260226166      -15.4326354257
 H        -6.6327054255       -4.4434077662      -17.1387284880
 H        -5.6096074961       -5.7558551564      -16.9502039564
 H        -5.0180100782       -4.2349435737      -16.2889324187
 H        -8.0567993683       -6.5843681985      -14.0349791261
 H        -7.1076689625       -7.3830746696      -15.2910078402
 H        -8.2914610021       -6.2124831452      -15.8314483778
 H        -3.9367818383       -5.2034664471       -7.5839341519
 H        -5.3644875303       -6.2595089361       -7.4310011378
 H        -5.3363381320       -4.9031920406       -8.6577603597
 H        -2.2828834467       -5.8471629422       -9.8758018314
 H        -3.5006528030       -4.5520087990       -9.9685465088
 H        -3.2791535616       -5.6801805836      -11.2153583876
 H         1.3805731659      -12.5099892552       -9.0272869255
 H         1.0934180466      -11.2127556083      -10.0946418486
 H         0.4052973275      -12.8375013807      -10.4674472000
 H        -1.9737405749      -13.3626211479       -8.9827110984
 H        -2.4945849592      -12.2121494593       -7.7310445185
 H        -1.1808985309      -13.3484641757       -7.5286780015
 H         5.8361615395      -10.4555254026       -7.3068368796
 H         5.9189439805      -11.5842173742       -5.8152683602
 H         6.3107044870       -9.7710347499       -5.7176304050
 H         5.2131242802       -9.7648752026       -3.7773984965
 H         4.3843035121      -11.2946809871       -3.9918321585
 H         3.4559794940       -9.8651363027       -3.7108380945
 H         3.1476441606       -4.2787018599       -6.2498074041
 H         2.1731725466       -3.3029730830       -7.1323655644
 H         3.5295533400       -4.0043116155       -8.0392490624
 H         0.0880380087       -6.4423891627       -6.7111362698
 H         0.2761417702       -4.7686974543       -6.1331524381
 H         1.3355177360       -6.2725469579       -5.6580435365
 H        -2.2638167407       -0.5688608696      -12.5288227174
 H        -2.1145398289       -2.1776188184      -11.8529727049
 H        -1.5732799134       -1.9694811711      -13.5154469350
 H         1.3494652079       -0.3057620636      -13.5442899430
 H        -0.2660458677        0.5404282396      -13.6770660804
 H        -0.0036334396       -1.0475066917      -14.3072397295
 H        -1.6794985947        3.4269415505       -6.4812450793
 H        -1.9033634646        4.3628894173       -7.9846893799
 H        -0.3574798783        3.8113193866       -7.5585067050
 H         0.0294648061        1.1752599373       -6.8842983415
 H        -0.5827244367        0.1733027022       -8.2135014291
 H        -1.4800434859        0.4876679982       -6.6988281940
 H        -7.7281183320        2.3505584672       -4.2798249326
 H        -7.2427172634        4.0017997331       -4.5735029389
 H        -6.0512916096        2.7999066697       -4.1829582531
 H        -7.7368775299        1.0740559779       -7.5646954558
 H        -8.8928869980        2.2303621665       -6.7222944326
 H        -7.9990645164        0.8163409048       -5.8485468647
 H        -3.4717324158        8.9707888996       -6.2294437731
 H        -5.2069335719        9.3293707098       -5.8417468239
 H        -4.3513559009       10.4873702747       -6.8793419899
 H        -6.5066873851        8.6129138707       -9.1774196594
 H        -6.2236762684       10.2813432238       -8.4178553438
 H        -7.0146188149        8.9691605501       -7.4664922546
 H        -0.2488062069        5.4303205274      -10.7685213925
 H         0.1197683588        5.3474406773      -12.4245092597
 H        -1.0534397044        4.3412705582      -11.7630379421
 H        -2.0803880804        8.3856558385      -12.9387082053
 H        -1.0855683397        7.3963791562      -13.9225366629
 H        -0.4754022821        8.1719696256      -12.4194172333
 H        -7.2513440444        4.8271703961      -14.8716489454
 H        -8.4219493009        5.2064207047      -13.7342951899
 H        -8.1731998251        3.4645891199      -14.3121719842
 H        -8.1597745690        5.2838581437      -11.5194810870
 H        -7.1100692065        4.3944849678      -10.5484495815
 H        -8.3441453842        3.4183640135      -11.4312296548
 Na       -3.5603459885        4.0093535588      -10.9083632421
 Na       -0.3704664382       -7.7856040646       -8.5971472469
