232

 C       -21.9249375752       -7.7071858942       -3.3623578843
 C       -20.8885324358       -6.5684322274       -3.4218933967
 O       -19.8806711949       -6.5633025078       -2.6807607665
 C       -21.0868990354       -5.5461026694       -4.6179302518
 C       -20.2830708619       -4.2342414689       -4.4207213370
 O       -20.1797047955       -3.8285156122       -3.2830216349
 C       -19.8689378900       -3.2933774770       -5.6039316486
 C       -18.6618734119       -3.7327891064       -6.4358856912
 C       -17.4457576396       -4.1143397059       -5.5436923829
 O       -17.5821270970       -5.2585918250       -5.0704293340
 C       -16.2402972617       -3.1922401750       -5.1504257369
 C       -16.6173199372       -2.8011192022       -3.5665327340
 O       -17.7584861406       -2.5438571708       -3.2929017875
 C       -15.4653460436       -2.5690155937       -2.6257557863
 C       -15.8001434376       -2.4263340861       -1.1551811646
 C       -16.0441241818       -3.8053218948       -0.4639657515
 O       -16.6395224877       -4.7458987543       -1.0475554974
 C       -15.3559671611       -4.0676564456        0.8445052268
 C       -13.9548913798       -4.7512421072        0.1619853100
 O       -13.1309932562       -4.0396547076       -0.3897877033
 C       -13.8345679529       -6.2499609270        0.1926409972
 C       -12.4690868893       -6.8044116066       -0.2858623074
 C       -12.3228101170       -6.5437061745       -1.8236366030
 O       -12.8485972789       -5.5216538488       -2.2784009329
 C       -11.5966347831       -7.5561180841       -2.7466067165
 C       -10.1572329059       -6.9760217412       -3.1349156258
 O        -9.4982476948       -6.2130190245       -2.4935361768
 C        -9.5165732832       -7.4499708070       -4.5772740657
 C        -7.9702628767       -7.3264683317       -4.6970282669
 C        -7.3814270296       -5.8592359079       -4.8655804722
 O        -7.8617485214       -5.1226848225       -5.6674684258
 C        -5.9873376790       -5.5242595815       -4.1644021602
 C        -4.9066162507       -6.0931060101       -5.1751870287
 O        -4.8011660409       -7.2804923040       -5.2143929776
 C        -4.0280562251       -5.1488926726       -5.9994257259
 C        -2.9126538577       -4.5097239891       -5.1164172745
 C        -1.9493065630       -3.5762658555       -6.0754704314
 O        -2.3493767672       -2.5809618830       -6.6697556792
 C        -0.4800182316       -3.9694128673       -6.2013872021
 C        -0.4556236173       -5.0564484977       -7.4027461512
 O         0.0761109176       -6.1349559479       -7.2337058386
 C        -0.9553814557       -4.4914084846       -8.6640871872
 C        -0.3879367747       -5.3730997412       -9.8453090497
 C         0.9837227419       -4.8889851137      -10.3479096532
 O         1.5488590214       -3.9413577094       -9.9470068284
 C         1.6570394051       -5.6052960076      -11.6704748117
 C         1.6349434851       -4.5892586279      -12.8115402309
 O         0.8047525408       -4.6790206723      -13.6784231691
 C         2.8332446106       -3.5749571581      -12.9245199198
 C         2.5891357287       -2.5541729403      -14.0500287825
 C         3.0385832829       -1.1199460665      -13.6816286975
 O         2.2204328274       -0.3755686686      -13.2228855552
 C         4.5222615919       -0.6754147147      -13.6299206046
 C         4.7708796479        0.6493192397      -14.4131618884
 O         5.6234892102        0.5958312386      -15.2685759840
 C         3.8037232320        1.7968134511      -14.4872325303
 C         4.0646354085        3.0331649767      -13.5196867324
 C         5.4989494299        3.6112111935      -13.5905783235
 O         6.2669960390        3.0537675527      -14.4064628394
 C         6.0020891767        4.6732052425      -12.5953941762
 C         6.9184168943        5.8604000431      -13.4368812979
 O         7.0125692179        6.9526795194      -12.9929892930
 C         7.4566995763        5.5840164821      -14.8857927932
 C         6.6661920673        6.5470053187      -15.8425030430
 C         6.4662744043        6.0314935686      -17.2829007454
 O         6.1788805734        4.9082461597      -17.5914418966
 C         6.4727536263        7.1708188898      -18.3759693160
 C         7.5699960080        6.9983991037      -19.4461573417
 O         8.7247515023        6.6094349097      -19.2510242184
 C         7.0285515296        7.2669298622      -20.8721058420
 C         8.0260385651        6.8312988440      -21.9456995281
 C         7.8728796876        5.1676533818      -22.4886934851
 O         6.8096044567        4.5918304144      -22.4220923807
 C         9.1109996129        4.4568720116      -23.1347449187
 C         9.2955822344        3.0272809288      -22.3603432290
 O         9.2300558964        2.0242148110      -23.0327418008
 C         9.4718182461        3.1134008693      -20.8661797999
 C         9.0711740750        1.7452672459      -20.3301090593
 C         8.3823623264        1.6548955669      -19.0309278691
 O         8.4227945865        2.4069105705      -18.0206481872
 C         7.5634229470        0.2811226366      -18.8600818343
 C         6.0361440347        0.7319439491      -19.1952165322
 O         5.4649248862        1.5099850474      -18.4353948316
 C         5.3710346088        0.3020808395      -20.4646687487
 C         7.9860786833       -0.9405001803      -19.8521540197
 C         7.6662585608       -0.3239078970      -17.5213796271
 C         8.7645765177        4.1453205866      -24.6064253398
 C        10.3620967379        5.2557241505      -23.1095414113
 C         5.0802230715        6.9931721017      -18.9521973115
 C         6.4734202037        8.6285599871      -17.7843075025
 C         4.8785712550        5.1562208121      -11.6650458933
 C         7.2746365602        3.9054310023      -11.8020976242
 C         4.7866189437       -0.6803107605      -12.1066662048
 C         5.5069996868       -1.7124480309      -14.3018894840
 C         3.1202364660       -5.8840172778      -11.2788047741
 C         0.8504484739       -6.8751466756      -12.0777005797
 C         0.4943490420       -2.8052365287       -6.5896977573
 C         0.1150111980       -4.5266889655       -4.8817458942
 C        -5.8629935132       -4.0079978919       -3.8708669289
 C        -5.8598537991       -6.3366642585       -2.7952908564
 C       -11.4330117635       -8.9912104012       -1.9734923514
 C       -12.4487184106       -7.7494946319       -4.0395340999
 C       -15.0601573949       -2.7916693581        1.7274584846
 C       -16.1413912754       -5.1625788407        1.7159467070
 C       -14.8578308383       -4.0048842435       -5.3528332780
 C       -16.2184537748       -1.9717730535       -6.0625161431
 C       -20.5415651178       -6.3008593385       -5.9358570872
 C       -22.5142667179       -5.1488864082       -4.7597716976
 H       -22.0973723267       -7.9188851577       -2.3528792706
 H       -21.4557207166       -8.6068325169       -3.8697143953
 H       -22.8244351296       -7.4706761393       -3.9024735307
 H       -19.6512257569       -2.2686977798       -5.1860129381
 H       -20.6436887598       -3.0940707291       -6.3679121011
 H       -18.4171218188       -2.9853210939       -7.1844011796
 H       -18.8693597539       -4.6464885756       -7.0682513046
 H       -14.8689184906       -1.7087921608       -2.9132850107
 H       -14.7729166005       -3.4477186535       -2.7869712043
 H       -16.7585265914       -1.8268511685       -1.1441337337
 H       -15.0858677163       -1.8735724179       -0.6872214854
 H       -14.5822519674       -6.6591923916       -0.4834849024
 H       -14.0459007122       -6.6395480510        1.2112607647
 H       -12.3484409922       -7.8753147837        0.0507266324
 H       -11.6722732813       -6.3407242874        0.2436845715
 H        -9.9329216076       -6.8777558388       -5.4755850557
 H        -9.7738870222       -8.5274244368       -4.7063612211
 H        -7.6866754522       -7.8161863597       -5.6171086574
 H        -7.5227053751       -7.9327961479       -3.8270271380
 H        -4.7627900993       -4.3453550367       -6.3238908306
 H        -3.5796297814       -5.7059257836       -6.9051247808
 H        -2.2713180887       -5.2164640722       -4.6570254189
 H        -3.4484430721       -3.9319190891       -4.4040773596
 H        -0.6078807166       -3.3896073514       -8.7167067143
 H        -2.0064789499       -4.5604741498       -8.6083412245
 H        -1.1225019187       -5.4329309207      -10.7400403919
 H        -0.2111413104       -6.4122580610       -9.5319512999
 H         3.8305920798       -4.0891300008      -13.1773288110
 H         2.9111942312       -3.0389218813      -11.9713895013
 H         1.5307714162       -2.6222093939      -14.2131686090
 H         3.0558555419       -2.8496826242      -14.9603054378
 H         2.7533704206        1.5000288545      -14.3995884916
 H         3.8908544332        2.1271867797      -15.5654788530
 H         3.8043722170        2.8035012079      -12.4790394662
 H         3.3640109515        3.8264926109      -13.6730914060
 H         7.3802433227        4.4863904039      -15.1211979036
 H         8.5598386805        5.7363398480      -14.8544815905
 H         7.3557023805        7.4033228718      -15.8651114435
 H         5.7994958808        6.8684562374      -15.4904085526
 H         6.6352003967        8.3080380027      -20.8951033369
 H         6.1030950294        6.6371845244      -21.1173154819
 H         8.9952068151        6.6918810634      -21.4215091672
 H         7.9914139754        7.5332645150      -22.7228408355
 H         8.8473523471        3.9367825766      -20.4506637484
 H        10.5739034358        3.2284543190      -20.7518279615
 H        10.0113792463        1.0874621059      -20.1507914868
 H         8.5288323001        1.1830173158      -21.0952841509
 H         4.6974297664        1.0616912497      -20.8161557826
 H         4.6639488584       -0.5428191762      -20.3994472633
 H         6.1200109982        0.0008355323      -21.2341142963
 H         7.3059170455       -1.7614624078      -19.5441159961
 H         8.9458890529       -1.2585312832      -19.6273730951
 H         7.8108224616       -0.6267532251      -20.8852969633
 H         8.7298597532       -0.4109309916      -17.1906479047
 H         7.1617646385       -1.3042715833      -17.6619897993
 H         7.2551344861        0.2741453675      -16.6730112364
 H         8.6125422829        3.1221756516      -24.7492899989
 H         9.5640092095        4.3062349416      -25.3471003086
 H         7.8255720631        4.7060908254      -24.9024302111
 H        11.3170331378        4.8960729054      -23.5129299076
 H        10.6278865502        5.4045343902      -22.0329925124
 H        10.1383997222        6.2160272862      -23.6503078039
 H         4.4553210199        7.1599663331      -18.0656280411
 H         4.8893209559        5.9914704420      -19.3281640242
 H         5.0009181023        7.7154446780      -19.6783861520
 H         7.2848428284        8.8562427582      -17.1354724958
 H         5.5501226163        8.9909211293      -17.2125888316
 H         6.6221769757        9.3050351067      -18.5919680369
 H         5.1257452989        6.0778462245      -11.1178291457
 H         4.5955907686        4.5100645910      -10.9057629828
 H         3.9486342889        5.4184181591      -12.1637069638
 H         6.9238463599        3.5045623344      -10.8862705751
 H         8.2049065103        4.4062724568      -11.7927176050
 H         7.5435731559        3.1442755704      -12.5251067869
 H         5.7834722415       -0.2802892304      -11.9289951700
 H         4.6845606413       -1.6677193489      -11.7137904021
 H         4.1893034808       -0.0198440566      -11.5703384409
 H         5.3846230551       -2.6681698813      -13.7198738160
 H         6.4671918856       -1.2463642380      -14.2168947270
 H         5.3003764974       -1.7836243282      -15.3665679521
 H         3.0385364698       -6.5492756505      -10.4639456208
 H         3.6507139646       -4.9616614611      -10.9536811099
 H         3.8370491537       -6.2223710982      -12.0553273088
 H        -0.1732235852       -6.6523303968      -11.8886706415
 H         1.0391485944       -7.5971231743      -11.3290440073
 H         1.0182171106       -7.3333279643      -13.0563892568
 H         0.9842610219       -2.4240930274       -5.6699349681
 H         0.0078461457       -1.8868160537       -6.9686985286
 H         1.2813760310       -3.2481000511       -7.2697438966
 H        -0.1715587705       -5.6208751753       -4.7192813488
 H        -0.3747454849       -3.9763459704       -4.1337280532
 H         1.1875436341       -4.4745103947       -4.9335695658
 H        -5.6686144365       -3.5205736781       -4.8621220931
 H        -4.9789043804       -3.6902581417       -3.2615808057
 H        -6.8049164387       -3.6903907106       -3.4564483139
 H        -6.8067514104       -6.1304779045       -2.2584264585
 H        -5.0665279681       -5.8726837927       -2.1772458995
 H        -5.7850679767       -7.3670029128       -2.8668418245
 H       -12.4167533973       -9.2867869234       -1.7756552869
 H       -10.8366056174       -8.9014016667       -1.0122166714
 H       -10.8508439655       -9.6411005317       -2.6241531625
 H       -13.2850256908       -8.4113806694       -3.7433593682
 H       -11.8131643416       -8.1214354542       -4.8079175163
 H       -13.0555557848       -6.8631618416       -4.3513737418
 H       -14.7620252615       -1.9652523855        1.1163576375
 H       -14.2904116523       -3.0561257934        2.5423616305
 H       -15.9610081644       -2.5449856352        2.3413428094
 H       -15.8528037417       -5.2046807176        2.8130982114
 H       -15.8319407563       -6.2155391138        1.3909990939
 H       -17.2697737487       -5.1071129544        1.5500841590
 H       -14.4622769762       -4.4448804910       -4.4135786658
 H       -14.1767792119       -3.4037691180       -5.8892192510
 H       -15.1279029127       -4.8872609599       -5.9250966259
 H       -17.2294154948       -1.5004431529       -6.3556964819
 H       -15.8882304200       -2.0417000917       -7.1116752544
 H       -15.7040689961       -1.1225609956       -5.5911073200
 H       -19.5106976399       -6.5609171534       -5.8686489030
 H       -20.6998681994       -5.5936794446       -6.6931196342
 H       -21.2120251543       -7.1727136123       -6.2162796508
 H       -22.6643108587       -4.0852370804       -5.0300587930
 H       -23.0057104840       -5.3045647880       -3.7956304570
 H       -23.0547181650       -5.7348576990       -5.4652514583
 Na      -18.1972759172       -4.8923416254       -2.6718172455
 Na        6.3588994432        2.7984769416      -16.6310800625
