232

 C        -7.0758243062        1.3139089892      -13.3806225944
 C        -6.3248390737        2.6034622993      -12.9876148118
 O        -5.1537009308        2.4805624496      -12.6286369457
 C        -7.0181762532        4.0377253082      -12.8261950926
 C        -5.8823119697        5.0890890686      -12.5376731838
 O        -5.5393462205        5.2801272158      -11.3967997857
 C        -5.3187496812        6.0556237641      -13.5991166550
 C        -4.1995716037        6.9450784106      -13.1576326081
 C        -2.9258341951        6.1678933651      -12.8785799147
 O        -3.0656181542        4.9752719484      -12.8489129423
 C        -1.5615719293        6.8429616820      -12.4385787356
 C        -1.9032260758        7.2495237899      -10.9035967007
 O        -2.3158371268        6.3358360371      -10.1386858656
 C        -1.8175277767        8.6171139354      -10.4209303774
 C        -2.3866601370        8.8417265559       -9.0067221513
 C        -3.8717736300        9.0806691682       -9.1670726755
 O        -4.4284821490        9.5269705973      -10.1471746022
 C        -4.7524318133        8.7704122130       -7.9273982772
 C        -4.5052525226        7.1416775427       -7.5801167850
 O        -3.5135168439        6.8298375837       -6.9587427841
 C        -5.5613856360        6.1366572614       -8.0169394622
 C        -6.0016144991        5.2121351718       -6.8803021572
 C        -6.6254106383        3.8743805848       -7.3770465581
 O        -7.1269037721        3.7476217056       -8.4802740888
 C        -6.5211474006        2.7626442296       -6.2560374029
 C        -5.1808894497        1.8860217565       -6.3871622405
 O        -4.2596148305        2.1275561396       -5.6169799995
 C        -5.0358954435        0.7112448529       -7.4226810055
 C        -3.5056485420        0.6253675019       -7.6172912889
 C        -3.0322728111        1.7899094691       -8.3333969828
 O        -3.7285323061        2.6478546479       -8.8112430847
 C        -1.3924026730        2.1505087492       -8.2551291594
 C        -0.8016152448        2.2504876238       -9.7799015470
 O        -1.3952759800        2.9058928149      -10.5155193487
 C         0.6966152090        1.8737309991      -10.0927223877
 C         0.7591674961        1.1775688095      -11.4776246244
 C        -0.1385682426       -0.1336976106      -11.4323907355
 O        -0.8422231250       -0.1850774250      -10.4111239943
 C        -0.2126216355       -1.2458021286      -12.5222738948
 C         0.6694395873       -2.5281234067      -11.9061841220
 O         1.6546937967       -2.8493488379      -12.5106584228
 C        -0.0182866899       -3.2890921210      -10.8564071122
 C         0.9700824046       -3.6824350269       -9.8170956998
 C         0.6009580804       -4.8378831203       -8.8157596819
 O        -0.3577265919       -5.5361183417       -9.1167070639
 C         1.4791979765       -5.1197288661       -7.5376823639
 C         2.3555971020       -6.4867116769       -7.8948517592
 O         1.7910558324       -7.4044780023       -8.4084560440
 C         3.8891996357       -6.6360876275       -7.4854266008
 C         4.4188237759       -8.1484243960       -7.4382918717
 C         3.7436001084       -8.8346256230       -6.1944512684
 O         2.7963534459       -8.2436569931       -5.7235028720
 C         4.2198381425      -10.2803956872       -5.6182005982
 C         3.1134380840      -11.1369623273       -6.2189039127
 O         3.2780209894      -11.6031373275       -7.3305136968
 C         1.7765784756      -11.3599202603       -5.4607763348
 C         0.8078835675      -12.0449208403       -6.3315669056
 C         0.3361645583      -11.0758599175       -7.4306872211
 O         0.5156831341       -9.8656351215       -7.3483788192
 C        -0.5197672331      -11.5933358711       -8.8141692530
 C        -1.3315333788      -10.4592187215       -9.4551295028
 O        -0.7955988941       -9.5928841133      -10.1901308963
 C        -2.8309117740      -10.3434522041       -9.2366300881
 C        -3.4907178961       -9.1289830556       -9.8871879721
 C        -3.5808276208       -7.8935437954       -8.9226351363
 O        -2.7106619644       -7.5930429486       -8.2142677374
 C        -4.6123507439       -6.7116469167       -9.2910107336
 C        -5.8612290019       -7.2733353236      -10.1018850726
 O        -6.4529428049       -8.2871861748       -9.7350670323
 C        -6.5384881120       -6.3696199608      -11.1835544472
 C        -5.7687049917       -6.7876938917      -12.4377941232
 C        -5.4252956051       -5.7061175784      -13.4719708024
 O        -4.2882675169       -5.2896307097      -13.3858744517
 C        -6.3973695540       -5.4094845846      -14.6967624299
 C        -7.1643709534       -4.1372377440      -14.1987065955
 O        -7.0735912222       -3.8040048692      -13.0397298101
 C        -7.9343219558       -3.2772674490      -15.2162209128
 C        -8.3761202156       -1.9586939866      -14.5885500854
 C        -9.8752308904       -1.7129738418      -14.2026983307
 O       -10.2943983969       -2.1257554493      -13.1216637680
 C       -10.8467736651       -0.9133128832      -15.1211307869
 C       -10.6029368591        0.5523238374      -14.7051385671
 O        -9.7792115322        1.2388818606      -15.2702521025
 C       -11.2599135180        1.0731660588      -13.3806053931
 C       -10.4575357788       -1.0502136086      -16.6185872750
 C       -12.2623962375       -1.4481805020      -14.9408708029
 C        -5.6633933051       -5.0431507023      -16.1320803997
 C        -7.4440423701       -6.5335660803      -15.0597328196
 C        -5.0816676633       -6.1224425820       -7.9867720597
 C        -3.7441726987       -5.5789776749       -9.8996600520
 C         0.6157065603      -12.0771647831       -9.7756591854
 C        -1.3910926350      -12.8227685796       -8.5174975741
 C         5.6623084299      -10.6113165230       -6.1684872287
 C         4.1074901879      -10.2975274014       -4.0165354051
 C         2.4914630179       -3.9756347111       -7.1798291320
 C         0.5142932344       -5.5125862044       -6.3408092140
 C        -1.7205578076       -1.6412896625      -12.6744717667
 C         0.4060346701       -0.7105621176      -13.8510278439
 C        -1.3635835158        3.5157693719       -7.5970854234
 C        -0.6104714842        1.1109815243       -7.3494661369
 C        -6.5914072983        3.3003995660       -4.8046415369
 C        -7.7150919996        1.7564854699       -6.5651975639
 C        -4.3752742050        9.4791036608       -6.6340127736
 C        -6.2645296504        9.0103515628       -8.3393201917
 C        -0.3000343404        5.8538117298      -12.4506148538
 C        -0.9396236823        8.0846580189      -13.1201803824
 C        -7.7897483271        4.4693523607      -14.1963783769
 C        -7.9105849406        3.9993062048      -11.5768592227
 H        -6.6898494103        0.8903517941      -14.3176803825
 H        -8.1442364866        1.5010633698      -13.5377792877
 H        -6.7669100109        0.5448073731      -12.7312142001
 H        -6.1623522372        6.7501983399      -13.8409091571
 H        -4.9935946910        5.5060526649      -14.5306339576
 H        -4.5207110173        7.6575545582      -12.4060151248
 H        -3.8786642725        7.5752606030      -14.0251244334
 H        -2.4656628770        9.1575807369      -11.0650194492
 H        -0.7957010521        8.9155906361      -10.5964336599
 H        -2.0133457481        9.7963930611       -8.5244317577
 H        -2.3335426514        8.1116970044       -8.2282862807
 H        -5.2219504631        5.5643468696       -8.8070838961
 H        -6.4119716868        6.6293071892       -8.4848062493
 H        -6.8480497841        5.7589703063       -6.3440963231
 H        -5.0741065169        5.1238133545       -6.3442523628
 H        -5.6044983527        0.8774573802       -8.3293637431
 H        -5.3939822761       -0.2555182860       -6.9624995269
 H        -3.2207207323       -0.3530047016       -8.0073701889
 H        -2.9252413292        0.6282434449       -6.6683939996
 H         1.0358990470        1.2971890005       -9.2074312100
 H         1.1902642531        2.7958182590      -10.1033812207
 H         1.7797774299        1.0102918821      -11.9418592876
 H         0.3826352414        2.0115557967      -12.1989901045
 H        -0.3441787873       -4.2296844918      -11.3767109208
 H        -0.8531425316       -2.7970083544      -10.3744065625
 H         1.1224221752       -2.7117490554       -9.2401606200
 H         1.8275460609       -3.9599584968      -10.2541797164
 H         4.1072430044       -6.2627010227       -6.5227254442
 H         4.4950697073       -6.2127440537       -8.2543383171
 H         5.4980800741       -8.1294763879       -7.1893997069
 H         4.2177540810       -8.6261727672       -8.4191391503
 H         1.2834863121      -10.3635059244       -5.1300712945
 H         1.8065410402      -12.0934968844       -4.6075860776
 H        -0.1353753886      -12.3003245111       -5.8271051844
 H         1.0187474904      -12.9371548370       -6.7602112110
 H        -3.1089973316      -10.4075220415       -8.1457068751
 H        -3.3202681448      -11.2670905339       -9.6309201011
 H        -4.3405181737       -9.4669500487      -10.3704437529
 H        -2.8270821844       -8.7631272330      -10.6381755291
 H        -6.5716908342       -5.3213468188      -10.8557557237
 H        -7.6263852510       -6.6831064134      -11.1514841039
 H        -6.2359610148       -7.6809702440      -12.8547873019
 H        -4.8336063461       -7.1107264594      -12.0753973982
 H        -8.7297018167       -3.8460027495      -15.5914052057
 H        -7.2630848861       -3.0743821344      -15.9842698770
 H        -8.1246327943       -1.2644015671      -15.2651223569
 H        -7.8300170141       -1.7062032686      -13.6593932521
 H       -11.4245214518        0.1387768909      -12.8509831278
 H       -12.0854529638        1.6485084177      -13.6226644404
 H       -10.5760742884        1.6453951349      -12.7785240523
 H        -9.5336038025       -0.5687523316      -16.6628914667
 H       -11.1684568743       -0.5680509251      -17.3020133628
 H       -10.3548348987       -2.0942803756      -16.9094815048
 H       -12.7225477529       -1.1428869971      -14.0645364392
 H       -12.2746775195       -2.5260795158      -14.8656032785
 H       -12.7761732852       -1.0611385186      -15.7715177353
 H        -6.3897410245       -5.2378546016      -16.8214842071
 H        -4.7042888046       -5.5850197568      -16.3736796380
 H        -5.3038163104       -4.0173957874      -16.1268367021
 H        -8.1063686132       -6.6549146999      -14.2194141841
 H        -6.8041128100       -7.3868465196      -15.2095407246
 H        -8.1583264650       -6.3552893502      -15.9527757057
 H        -4.2086348076       -5.6200792247       -7.5861950192
 H        -5.6085594378       -6.8604491417       -7.3185439087
 H        -5.7520162206       -5.2741138362       -8.2173385621
 H        -3.5545512990       -4.7133678784       -9.2084549372
 H        -4.2918908816       -5.2324221815      -10.7870274122
 H        -2.8199002695       -5.9111146708      -10.3506974517
 H         1.2004362449      -12.7471070396       -9.1889425565
 H         1.2685136615      -11.2809095555      -10.2305959600
 H         0.1905012983      -12.6668258205      -10.5932895511
 H        -1.7499197427      -13.1747487535       -9.5144717652
 H        -2.3132508838      -12.6890415692       -7.9418287353
 H        -1.0195978859      -13.6232643195       -7.8748167429
 H         5.5314267985      -10.8168154627       -7.2537493832
 H         6.0284586109      -11.5233923808       -5.6411222217
 H         6.5135143171       -9.8797467141       -6.0482196066
 H         4.8731369113       -9.7052381744       -3.6072391364
 H         4.2860869220      -11.3227475236       -3.7330041816
 H         3.1553896849       -9.9409189987       -3.6923394923
 H         3.1882147784       -4.3976955784       -6.4688310895
 H         1.9497747279       -3.0934915427       -6.8096657565
 H         3.0056192937       -3.6924970018       -8.1202491154
 H        -0.1082778166       -6.4301556198       -6.6067966480
 H        -0.1598198610       -4.6992669270       -6.2006756925
 H         0.9181501787       -5.6984416557       -5.2754354215
 H        -2.2846493083       -0.9895267442      -13.3691409901
 H        -2.1829081823       -1.6514211247      -11.6619760897
 H        -1.7871754579       -2.6795020173      -13.0398834933
 H         1.2333572816       -0.0582547293      -13.5985131159
 H        -0.4278969576       -0.2967324750      -14.4352899258
 H         0.8310189153       -1.4481402420      -14.4251892440
 H        -1.7493452735        3.6717254243       -6.5579760681
 H        -1.9764803764        4.1283433086       -8.2264598496
 H        -0.3415080413        3.9386492013       -7.6017628641
 H         0.4617291774        1.2692067201       -7.3928792325
 H        -0.8371112057        0.0848602562       -7.6446578480
 H        -0.9842900605        1.2924959154       -6.3469059547
 H        -6.8725027450        4.3240309283       -4.6940646105
 H        -5.7357182852        3.0183950820       -4.1999972113
 H        -7.2566305189        2.7065815055       -4.2380470766
 H        -7.6344237295        1.3631953469       -7.5778521316
 H        -8.6188299722        2.3426309837       -6.4842436470
 H        -7.6134230705        0.9778242722       -5.7487169338
 H        -3.4274111420        8.9813606309       -6.2417198775
 H        -5.1172040944        9.4240688554       -5.8199940364
 H        -4.1395118213       10.4825208860       -6.9331398377
 H        -6.5216591049        8.6365899763       -9.3774949344
 H        -6.4018634376       10.0983405825       -8.3205595967
 H        -6.9375413362        8.6271350948       -7.5690508161
 H         0.5347845049        6.3948794371      -12.1642700296
 H        -0.0833241034        5.5651915657      -13.4772488804
 H        -0.3082039735        5.0241883438      -11.8443749524
 H        -1.6101195245        8.9337976008      -13.2950380461
 H        -0.4529236369        7.8750066421      -14.0292818466
 H        -0.0538313352        8.4506907175      -12.5790267890
 H        -7.1254799031        4.3404502834      -15.0572204903
 H        -8.2493295352        5.4346961217      -14.0776755472
 H        -8.5794535125        3.7016016943      -14.2891612767
 H        -8.5313141457        4.9416132561      -11.4457341673
 H        -7.4056079896        3.7219148557      -10.6996229969
 H        -8.8185700571        3.3868117998      -11.7648656900
 Na       -3.5465299512        4.0977275587      -10.8864988350
 Na       -0.4159454781       -7.9428726982       -8.7304327647
