232

 C        -7.0292732842        1.3833923487      -13.3909328217
 C        -6.3424383004        2.6302355564      -12.8694049005
 O        -5.1546111848        2.6158145124      -12.4619153129
 C        -7.0498472992        4.0208383498      -12.8796381205
 C        -5.8576421866        5.0896528374      -12.4551578549
 O        -5.4387524966        5.0737635825      -11.3183561707
 C        -5.3985768946        6.1240187814      -13.5251984452
 C        -4.2155535972        7.0195253771      -13.0934895761
 C        -2.8010028654        6.1816260576      -12.8758141989
 O        -2.8513322905        4.9797964774      -12.8867941238
 C        -1.4877660859        6.9824627677      -12.4161218996
 C        -1.8485924843        7.2249992611      -10.8987161456
 O        -2.3486007659        6.3264415085      -10.2506850438
 C        -1.7870797175        8.7212687061      -10.5430853016
 C        -2.3170341181        8.9004424093       -9.1337345740
 C        -3.8676392501        9.0545888268       -9.1751162289
 O        -4.3096651286        9.4338576026      -10.2498584864
 C        -4.7765140803        8.6922768971       -7.9425290811
 C        -4.5262403026        7.2024009467       -7.5758404100
 O        -3.5086186720        6.9684699301       -6.9558395086
 C        -5.4588703579        6.0929422915       -8.0403940028
 C        -5.9649885455        5.2184814531       -6.8400505767
 C        -6.5736929967        3.8951464689       -7.3161197979
 O        -7.1097709013        3.7320131203       -8.4081524931
 C        -6.5177325099        2.6804667644       -6.2358294583
 C        -5.2030075923        1.9792493320       -6.3631906875
 O        -4.2265620533        2.2701310353       -5.7029777752
 C        -5.0347334468        0.7983735124       -7.3244591504
 C        -3.5033788015        0.5578367768       -7.5601634629
 C        -2.9660676722        1.8571743735       -8.3397410375
 O        -3.6726600632        2.6301186154       -8.8988259942
 C        -1.3975515381        2.2194236656       -8.3833788027
 C        -0.8138085872        2.3601454160       -9.7720283018
 O        -1.4124164889        3.0562941797      -10.6310130291
 C         0.5786200749        1.7025036896      -10.2626112188
 C         0.5952099628        1.0557910401      -11.5517770125
 C        -0.2381915084       -0.1902144021      -11.3805823422
 O        -0.9086841425       -0.3768238017      -10.3602542136
 C        -0.1608393810       -1.1800110571      -12.5225882199
 C         0.4872012620       -2.5306156934      -12.0221738396
 O         1.4894188094       -2.8906480282      -12.6054164331
 C        -0.0831743161       -3.4197974935      -10.8501777639
 C         1.0442830760       -3.7107431468       -9.7704408046
 C         0.6760864710       -4.8436722453       -8.7855307839
 O        -0.2876019480       -5.5753162923       -9.0629759025
 C         1.4920430482       -5.1969553521       -7.5460561374
 C         2.2901503303       -6.5539673529       -7.8211982814
 O         1.7943775699       -7.4351196742       -8.4766246551
 C         3.7686472687       -6.6001269482       -7.4431894951
 C         4.2877954031       -8.0347858766       -7.4045713589
 C         3.6748548285       -8.7155044026       -6.1801067278
 O         2.7309028708       -8.2452367670       -5.5866163919
 C         4.1422525476      -10.1617834872       -5.7114870139
 C         3.1445171345      -11.1119040273       -6.3408250114
 O         3.2882030242      -11.5676035441       -7.4365918300
 C         1.8895763224      -11.4059466102       -5.5121007173
 C         0.7726282301      -11.9936660340       -6.4012506320
 C         0.2099201122      -10.9759384414       -7.4197594017
 O         0.4318795279       -9.8182963888       -7.2846440559
 C        -0.5531081239      -11.5782245943       -8.7843966233
 C        -1.2924885568      -10.4280284671       -9.5248941967
 O        -0.7204940488       -9.5842003294      -10.2121714240
 C        -2.8314511258      -10.3382924681       -9.2343571902
 C        -3.6711758614       -9.1562137463       -9.7455314336
 C        -3.4934662506       -7.8633583668       -8.9929397221
 O        -2.6409792650       -7.6438041232       -8.1121804903
 C        -4.6654020287       -6.7095767710       -9.2749105738
 C        -5.9204130760       -7.2278467137       -9.9559415223
 O        -6.2097339993       -8.4019080973       -9.7940614108
 C        -6.5866278166       -6.4502617200      -11.1492257631
 C        -5.8416945347       -6.9088022803      -12.4591399894
 C        -5.3699408498       -5.7582365878      -13.4717731192
 O        -4.2437284639       -5.3117097889      -13.3487334525
 C        -6.3847464595       -5.3601334435      -14.5363539661
 C        -7.1582310902       -4.1062788514      -14.1160873806
 O        -7.1591286881       -3.9064195037      -12.9142371541
 C        -7.9000247016       -3.2187156177      -15.1967394135
 C        -8.2420974523       -1.8085122334      -14.6385752307
 C        -9.7546742868       -1.7067759011      -14.1700477972
 O       -10.1114378179       -2.0029807963      -13.0774608990
 C       -10.7364300395       -0.9572184969      -15.1269118167
 C       -10.5329844376        0.5234408977      -14.6700880555
 O        -9.8893284807        1.3214621230      -15.2969502431
 C       -11.2897396399        0.9485228094      -13.3575705649
 C       -10.3831795650       -1.2043085808      -16.6093095327
 C       -12.2418978917       -1.3642994060      -14.9223619376
 C        -5.5651753244       -5.1193146621      -15.8740346864
 C        -7.3894781659       -6.5202812946      -14.9012273896
 C        -5.3106824684       -6.3223657431       -7.8363360532
 C        -3.8554033270       -5.7087126288      -10.1935080208
 C         0.6655647444      -12.1061008820       -9.6941583340
 C        -1.5061541350      -12.7778778841       -8.6514783174
 C         5.5087663883      -10.5895030224       -6.0822024817
 C         4.0492174481      -10.3635783996       -4.1507771397
 C         2.3575563772       -3.9493540690       -7.0387104266
 C         0.5863428429       -5.4357233299       -6.3695262732
 C        -1.5633313306       -1.6318265411      -12.8032252746
 C         0.4798942426       -0.7164132886      -13.8347307430
 C        -1.3498256324        3.5947825781       -7.6730394111
 C        -0.5700426938        1.1912841572       -7.5267653446
 C        -6.6837644715        3.2665220026       -4.8207847701
 C        -7.7425661176        1.6845736842       -6.4691517068
 C        -4.3009016732        9.5124336039       -6.7006644851
 C        -6.2313573951        8.9867406104       -8.2569509800
 C        -0.2380465416        5.9740787130      -12.4475466728
 C        -1.3034241058        8.1799183811      -13.2877530408
 C        -7.7825697710        4.4352607601      -14.1414837820
 C        -8.0311155298        4.0532204768      -11.7358988761
 H        -6.7177827604        1.2725675488      -14.4035941447
 H        -8.0865689185        1.5277363197      -13.4343246746
 H        -6.6402167070        0.4670515490      -13.0093224550
 H        -6.2931341761        6.6952887416      -13.6894772501
 H        -5.0991152221        5.5660476271      -14.4637737142
 H        -4.4954164527        7.4754200463      -12.1059817105
 H        -4.0002722215        7.8940070744      -13.7561390704
 H        -2.3719746112        9.2381462843      -11.2709672381
 H        -0.7590829509        8.9963151310      -10.6459037986
 H        -1.8953967833        9.6404406935       -8.5530300684
 H        -2.2172963085        7.9692276719       -8.6179111743
 H        -4.9960785090        5.4610055909       -8.7593984667
 H        -6.2832648053        6.4737465537       -8.6283132655
 H        -6.8538874755        5.8088399747       -6.3853351885
 H        -5.0601143224        5.1152820083       -6.2544702470
 H        -5.5719916791        0.9614637118       -8.2602892167
 H        -5.4363446116       -0.1235911269       -6.8968992605
 H        -3.4852537721       -0.4532872681       -8.1171478409
 H        -2.9319848329        0.3601642835       -6.6843253494
 H         0.9599170206        0.9906875437       -9.4545873648
 H         1.2316297365        2.5969223445      -10.3168667141
 H         1.5924158989        0.6457227547      -11.7168197729
 H         0.4961841261        1.6666754502      -12.4250257742
 H        -0.2846322361       -4.3596872584      -11.3255356656
 H        -0.9643721779       -3.0946255046      -10.2199343144
 H         1.1916658338       -2.8051077296       -9.2280184600
 H         1.9556337861       -4.0228609681      -10.2021026365
 H         3.9614641354       -6.2865776922       -6.4173028310
 H         4.3824228756       -6.0540994160       -8.1891159623
 H         5.3901586640       -8.0169370334       -7.2172968936
 H         4.0195908993       -8.6585661634       -8.2813668028
 H         1.5498673693      -10.4223481910       -5.0560405503
 H         2.0054788945      -12.2495795510       -4.7260739602
 H        -0.0718467879      -12.5186752651       -5.9601999275
 H         1.1471943231      -12.7865154155       -7.0425744833
 H        -2.9730108984      -10.4408925857       -8.1507421957
 H        -3.2706517568      -11.2340489115       -9.5679983982
 H        -4.7101287661       -9.4666006499       -9.8491765036
 H        -3.3176376249       -8.8873138417      -10.8172260127
 H        -6.6355191025       -5.3463892545      -10.9693691877
 H        -7.7074343208       -6.7471490658      -11.1510217820
 H        -6.4973067891       -7.6187435343      -12.8870625374
 H        -4.9631314696       -7.4666001548      -12.1653134673
 H        -8.8349155605       -3.7206373462      -15.4311769183
 H        -7.2406023344       -3.2209043663      -16.0819541565
 H        -8.1002706455       -1.0519377276      -15.4614161957
 H        -7.6114675313       -1.4625526040      -13.8032438961
 H       -11.2660284453        0.1371635583      -12.6436892787
 H       -12.2563691608        1.1546569418      -13.7880436208
 H       -10.8949456677        1.8866876591      -12.9191967330
 H        -9.4427146911       -0.6441938866      -16.8660530194
 H       -11.1463284397       -0.9703483845      -17.3051632264
 H       -10.1697779364       -2.2457501395      -16.6212594108
 H       -12.5775984882       -0.9197697653      -14.0344871751
 H       -12.4343931168       -2.4277754297      -14.7706255101
 H       -12.8064514523       -0.8883870816      -15.7208575542
 H        -6.2715936216       -5.3018416028      -16.6775293463
 H        -4.7157303020       -5.7764168419      -15.9248814003
 H        -5.1477340332       -4.1748353746      -15.9077185197
 H        -7.9530307703       -6.7638640778      -14.0059493265
 H        -6.6694707826       -7.3291932375      -15.1879005716
 H        -8.1518581426       -6.3078407217      -15.6331806855
 H        -4.5169601213       -6.1352502307       -7.1127660410
 H        -5.9506129079       -7.2152569988       -7.6158091176
 H        -5.9743379015       -5.4630520342       -7.8554914862
 H        -3.4338773127       -4.9466202090       -9.5811881475
 H        -4.5032645465       -5.2272862208      -10.9269260892
 H        -3.0999313147       -6.1923760977      -10.8720543536
 H         1.2050005099      -12.7609471971       -9.0443670778
 H         1.3372162019      -11.3574748696      -10.1064371297
 H         0.2622664767      -12.7044557872      -10.5123159847
 H        -1.8504307307      -13.0635289221       -9.6919766934
 H        -2.4221205268      -12.6444894621       -8.0713932304
 H        -1.1309503106      -13.6361757957       -8.0749489693
 H         5.5982914092      -10.5451765854       -7.2184918411
 H         5.5710125934      -11.6577954233       -5.7441197383
 H         6.3751118029      -10.1018823189       -5.6110365337
 H         4.9725343694       -9.9446153148       -3.7921740738
 H         4.1124319459      -11.3979419531       -3.9277062573
 H         3.1953045650       -9.8688509059       -3.7447546317
 H         3.0294424597       -4.3070830505       -6.2645181185
 H         1.6293020066       -3.1969779950       -6.7291505113
 H         2.9347086036       -3.5290491799       -7.8079874012
 H        -0.0298196278       -6.3491689867       -6.2757490173
 H        -0.0156235074       -4.5503274479       -6.2189406751
 H         1.1930360423       -5.3866000144       -5.4526417525
 H        -2.2274183045       -0.8828929678      -13.3221074358
 H        -1.9665902731       -1.9932099372      -11.9013696194
 H        -1.4752673055       -2.5571175895      -13.5088479767
 H         1.4637913389       -0.2815846390      -13.5691593891
 H        -0.1401676068       -0.1814047747      -14.4419815730
 H         0.7283170340       -1.6792525834      -14.3618438107
 H        -1.9184890401        3.7906775964       -6.7908020092
 H        -1.6844343229        4.3794061376       -8.4149837235
 H        -0.2782996939        3.7979284819       -7.4326708656
 H         0.2969404255        1.7711294314       -7.2567756212
 H        -0.2459082884        0.3276286658       -8.1013196528
 H        -1.1709816636        0.9038135046       -6.6522744462
 H        -6.7417344097        4.3140086488       -4.8663620411
 H        -5.9599335523        2.9740862058       -4.1266008024
 H        -7.5808301423        2.9182004704       -4.2867682377
 H        -7.6050792027        1.0223183577       -7.3695432182
 H        -8.6526611906        2.2598626748       -6.5379535588
 H        -7.7078920220        1.1422307053       -5.5024423546
 H        -3.5145525782        8.9778141130       -6.1884182772
 H        -5.1226550380        9.6475917700       -5.9668186408
 H        -3.8953819393       10.4883148639       -7.0872215371
 H        -6.5957855355        8.4497878968       -9.1918179855
 H        -6.3070189687       10.0433525219       -8.4340646721
 H        -6.8729963550        8.7360747647       -7.3528267412
 H         0.5907743178        6.1393431839      -11.7485754009
 H         0.1836281835        5.9327654015      -13.4051890236
 H        -0.6075785621        5.0084520337      -12.2300450357
 H        -2.1544132321        8.8044000243      -13.4101728818
 H        -0.9226660192        7.8311119746      -14.3073768856
 H        -0.4598964502        8.7803733731      -13.0510446515
 H        -7.0720299000        4.7298098958      -14.9051100038
 H        -8.5326496412        5.1676945803      -13.8436217645
 H        -8.3534915976        3.5826706494      -14.4856625884
 H        -8.6769947042        4.8973957185      -11.7280620528
 H        -7.5345458295        3.8738282982      -10.8065136685
 H        -8.8291499377        3.3704403572      -11.8674988658
 Na       -3.4234329759        4.0522122309      -10.8673427652
 Na       -0.4226396290       -7.9644985048       -8.7395171632
