232

 C        -6.8684793838        1.6743061114      -13.4684295242
 C        -6.2034460730        2.7488362714      -12.5990065780
 O        -5.1250745945        2.6739516196      -12.0910506664
 C        -6.9707553996        4.1347727835      -12.7656914202
 C        -5.9285976322        5.1364202939      -12.3409619054
 O        -5.3876372512        5.0375050353      -11.2340841088
 C        -5.4549781471        6.1398744699      -13.3967305956
 C        -4.1734426000        6.7980029435      -12.8995328191
 C        -2.8803062398        6.0186861383      -13.0148314888
 O        -2.7413033468        4.8482983594      -13.2998978334
 C        -1.6794636697        7.0946032012      -12.5199703512
 C        -1.9682483127        7.3989495565      -11.0498071771
 O        -2.3098301875        6.4222221658      -10.3632707338
 C        -1.5092279873        8.7724597907      -10.3551830183
 C        -2.3483064419        9.0078679707       -9.1369099464
 C        -3.8771471387        9.0398026331       -9.2791888028
 O        -4.3959775318        9.1084487855      -10.3297238772
 C        -4.7531107373        8.6503850956       -7.9510532442
 C        -4.4344121171        7.1501503690       -7.5558331817
 O        -3.4276209194        6.9242551124       -6.8999448797
 C        -5.2924731864        5.9420715992       -8.0774999693
 C        -5.7665225820        5.1440870449       -6.8519708705
 C        -6.5415849635        3.8579875335       -7.2197788485
 O        -7.0604347609        3.6083405770       -8.2756412487
 C        -6.5681056528        2.7104901545       -6.0789118803
 C        -5.1572192772        2.1625711489       -6.3298402152
 O        -4.2440421623        2.7515446196       -5.7615667332
 C        -4.8872804322        0.9770613180       -7.2709889021
 C        -3.4706767935        0.6711186095       -7.7679335693
 C        -2.9315645036        1.9022536851       -8.6093339013
 O        -3.6782696364        2.6021631098       -9.2472537694
 C        -1.3343022974        2.3231084628       -8.4467906280
 C        -0.7158637475        2.5265214596       -9.8687530146
 O        -1.2721536986        3.0584955882      -10.7360620699
 C         0.6387299961        1.8847168221      -10.3061627284
 C         0.3816507923        0.8878161386      -11.5208227878
 C        -0.4340915999       -0.4787932755      -11.3714008239
 O        -1.0578818221       -0.7482974063      -10.3482520769
 C        -0.3356789491       -1.4346392231      -12.6091518824
 C         0.4445366018       -2.8403415491      -12.0946305536
 O         1.4662536319       -3.1783909699      -12.6261675849
 C        -0.0346878655       -3.4519664823      -10.8246901158
 C         1.0422340450       -3.7017575713       -9.7243744789
 C         0.5620203286       -4.8310632634       -8.8358524602
 O        -0.2589371190       -5.6234829297       -9.1918074143
 C         1.4110447542       -5.0995442818       -7.4907356387
 C         2.3606133472       -6.3917408817       -7.7931606645
 O         1.8662799699       -7.3048510821       -8.4161300873
 C         3.8145110579       -6.4798090724       -7.3383488696
 C         4.2852743862       -7.9634095936       -7.2450027910
 C         3.5043415753       -8.7316519210       -6.0419716621
 O         2.7081456711       -8.2092637951       -5.2670679907
 C         4.0250636168      -10.1257891474       -5.7177157467
 C         3.0303569793      -11.1620446823       -6.4844564525
 O         3.2827116762      -11.4214534082       -7.6416564241
 C         1.7432762820      -11.5166087510       -5.7408700051
 C         0.6200817630      -12.0547901442       -6.5586439538
 C        -0.0276145781      -10.9936108401       -7.5982257957
 O        -0.0764585591       -9.8180772410       -7.2312027654
 C        -0.5188497291      -11.6114437177       -8.9203406897
 C        -1.3401935870      -10.4347279530       -9.6195034956
 O        -0.7004287393       -9.6021264352      -10.2589447691
 C        -2.7787531147      -10.4125764919       -9.1540953447
 C        -3.5481830933       -9.2744000891       -9.7921767027
 C        -3.6352988511       -7.9594022877       -8.8646283417
 O        -2.7226889761       -7.6010501865       -8.1362353847
 C        -4.7394457980       -6.9543028474       -9.2393301832
 C        -5.9975633612       -7.5448198649      -10.0337052066
 O        -6.4879636174       -8.6227552779       -9.7312236448
 C        -6.4920646553       -6.7241640215      -11.2546380559
 C        -5.6605221879       -7.1909714426      -12.5161713543
 C        -5.4127551224       -5.9336140371      -13.3300035558
 O        -4.3183761959       -5.4318414933      -13.0962672180
 C        -6.4280662829       -5.3280676410      -14.3847824740
 C        -7.1577698113       -4.0847917348      -13.9157078525
 O        -7.3394595495       -3.8910696817      -12.7476782603
 C        -7.7737873954       -3.2173873960      -15.0460498944
 C        -8.0154548894       -1.8121368645      -14.6092202406
 C        -9.4852502008       -1.5960339933      -14.1201678486
 O        -9.8972021817       -1.8606899922      -12.9916165538
 C       -10.6450009920       -0.9611349178      -15.0402922793
 C       -10.5353099062        0.5821100438      -14.6930471376
 O        -9.9248710254        1.3541110559      -15.4123605477
 C       -11.2582348754        0.9511342623      -13.3977663470
 C       -10.2898838907       -1.1848274977      -16.5341136632
 C       -12.0142257601       -1.6325077069      -14.8139501473
 C        -5.4695320884       -5.1000903576      -15.6078719980
 C        -7.5451455697       -6.3884095698      -14.8388549164
 C        -5.1322563424       -6.2964392050       -7.9611494282
 C        -3.9978272413       -5.6090207891       -9.8665511654
 C         0.7565967027      -11.9196680849       -9.8025433434
 C        -1.3869800887      -12.8289626461       -8.4526962621
 C         5.4067561469      -10.3722260483       -6.2812782371
 C         4.0010509674      -10.2612215638       -4.1519037439
 C         2.3580119618       -4.0064051232       -7.1605668305
 C         0.4613059341       -5.6138062089       -6.3844080342
 C        -1.6956221536       -1.7337161401      -13.1824127263
 C         0.5666461949       -0.8670565157      -13.7692431158
 C        -1.2796375220        3.7359058598       -7.8122719345
 C        -0.6135143990        1.3724072566       -7.6190452809
 C        -6.8725041722        3.1832393120       -4.5934479720
 C        -7.6985686427        1.7386391580       -6.4849006020
 C        -4.1806500080        9.7392179235       -6.9210934236
 C        -6.2021678069        9.0661837728       -8.2495087005
 C        -0.2863306722        6.3816437577      -12.6491133314
 C        -1.5989456295        8.3100837781      -13.5280019910
 C        -7.5601172032        4.3783579046      -14.2258554745
 C        -8.1167606019        4.0584800841      -11.7094706243
 H        -6.8179217846        1.9368190918      -14.5573925112
 H        -7.9517380257        1.5726851327      -13.2517828367
 H        -6.3023401806        0.7419898649      -13.4981292378
 H        -6.2774691105        6.8715845824      -13.5346627215
 H        -5.1949184609        5.6796194575      -14.2971060651
 H        -4.2210645965        7.0936957806      -11.8635548228
 H        -3.9567113426        7.7195912112      -13.4127024578
 H        -1.5241760434        9.5715587951      -11.1543713819
 H        -0.4674449481        8.6403476566       -9.9383678054
 H        -2.1020947733        9.9330943560       -8.4838480167
 H        -2.1659742514        8.1092620803       -8.5165726197
 H        -4.7621756581        5.2718654635       -8.8129291387
 H        -6.2052353031        6.2029163626       -8.6785302400
 H        -6.3535926012        5.8032652745       -6.3140454293
 H        -4.8397437125        4.8813184589       -6.3546316788
 H        -5.4823428323        1.2894150326       -8.1289356005
 H        -5.3449501144        0.0587797211       -6.8733864639
 H        -3.5668230170       -0.2067020232       -8.3607862182
 H        -2.7314079746        0.4621175873       -6.9264407472
 H         1.0798448526        1.2841328330       -9.5523058448
 H         1.2413310867        2.7587609000      -10.5746263316
 H         1.3386686522        0.7496391756      -12.0003968400
 H        -0.2484201925        1.3031621265      -12.3443646533
 H        -0.5590788471       -4.4210774540      -10.9522122402
 H        -0.6868591009       -2.7691533319      -10.3734331801
 H         1.3401970888       -2.7458793074       -9.1303463637
 H         1.9236700026       -4.1174471752      -10.3041264843
 H         4.0928063932       -6.0075310578       -6.3727804188
 H         4.3757702673       -6.0502308617       -8.1927372906
 H         5.3263537262       -7.9455276742       -7.0093464785
 H         4.1206138394       -8.5132026621       -8.1658948994
 H         1.4264567852      -10.6528889195       -5.1968810357
 H         1.9356083476      -12.2710598191       -5.0896609340
 H        -0.2747460136      -12.2810908216       -5.9006448324
 H         0.7722551716      -13.0132825513       -7.0588939071
 H        -2.7695258955      -10.2518060988       -8.0773284723
 H        -3.2536372279      -11.4314827515       -9.1770685225
 H        -4.5993236936       -9.6189568342      -10.0402603122
 H        -3.1278887711       -9.0646074934      -10.7655566241
 H        -6.2968450032       -5.6832058753      -11.1391567877
 H        -7.5200698981       -6.7911817964      -11.3868373199
 H        -6.2685184860       -7.9941746878      -13.0475994972
 H        -4.6442306602       -7.5937644291      -12.2561545873
 H        -8.7297046696       -3.7316144223      -15.4019437511
 H        -7.0085068238       -3.2907298913      -15.8359670612
 H        -7.8087367840       -1.1098277679      -15.3752047963
 H        -7.2611199789       -1.5965734682      -13.7843559200
 H       -10.7535026919        0.3963616879      -12.5662476604
 H       -12.3276134374        0.7211700462      -13.5306290828
 H       -11.1102811752        2.0266541405      -13.3167031929
 H        -9.5416671636       -0.4727556117      -16.7485407942
 H       -11.1570613315       -0.8853677167      -17.1928630981
 H        -9.9240195723       -2.2390460338      -16.6866838967
 H       -12.0512200513       -2.1575856860      -13.8309099975
 H       -11.9860365334       -2.4700076683      -15.5609345708
 H       -12.9351965711       -1.0029670358      -14.9283799393
 H        -5.8222477079       -4.5322782791      -16.4573342735
 H        -5.1891855870       -6.1708837612      -15.8439743624
 H        -4.5281878210       -4.6062513721      -15.1682142210
 H        -8.3465224310       -6.3811420463      -14.1281389376
 H        -7.1563832667       -7.3259890848      -15.0555056000
 H        -7.9906091181       -5.9028218775      -15.7297588809
 H        -4.2185866527       -6.1598018130       -7.4106559211
 H        -5.8185943426       -6.9343659868       -7.4591046136
 H        -5.7218502876       -5.3895994226       -8.1087808146
 H        -2.9328510558       -5.6794922410       -9.5482227960
 H        -4.3149879813       -4.6597173616       -9.4094858454
 H        -4.1431479699       -5.5307177050      -10.9066244450
 H         1.3136732726      -12.7011309939       -9.2868812085
 H         1.3714288268      -11.0055442382       -9.7539136452
 H         0.5169687273      -12.1448812074      -10.8325371954
 H        -2.1760866487      -13.2611821935       -8.9912138373
 H        -1.7678255989      -12.6127525216       -7.4335252182
 H        -0.7182482408      -13.6746453682       -8.2515900990
 H         5.5091214561      -10.0421463903       -7.2656885304
 H         5.7837917503      -11.3626772793       -6.2642845654
 H         6.0461948910       -9.7696632581       -5.6558691189
 H         4.9078904018       -9.7541487354       -3.8016199845
 H         4.1890598919      -11.3401604998       -3.8982132277
 H         3.0446774462       -9.8537987453       -3.7574916925
 H         2.6850776985       -4.2009469095       -6.1654865706
 H         1.8893570519       -3.0655774636       -7.3258457231
 H         3.3214850960       -4.0414251013       -7.7208969072
 H        -0.1308927526       -6.3563842625       -6.8614902321
 H        -0.1405178909       -4.9332046995       -5.8553865442
 H         0.9763964314       -6.1038114097       -5.5703199342
 H        -2.2259037205       -0.8286691020      -13.3013539894
 H        -2.2397231473       -2.4226022933      -12.4833996407
 H        -1.6504686794       -2.0986021167      -14.1440131528
 H         1.6232727248       -1.0507265080      -13.5126027712
 H         0.3721205132        0.3074904673      -13.8562730979
 H         0.2432495726       -1.2908189099      -14.6957372172
 H        -1.7504189374        3.6894399983       -6.7899833535
 H        -1.7720707846        4.5227216020       -8.3321597652
 H        -0.2470535292        3.9700278813       -7.6068508639
 H         0.4464007702        1.5698748156       -7.8410329479
 H        -0.9323144478        0.4172344145       -8.0815193246
 H        -0.9509238609        1.4012729063       -6.5853792281
 H        -6.6936117199        4.2700553900       -4.3476772246
 H        -6.1895824689        2.6443744645       -3.8302394041
 H        -7.8772340893        2.9395788191       -4.2608354494
 H        -7.4856160226        1.5995151351       -7.4925480041
 H        -8.6454437129        2.2840547286       -6.3847506996
 H        -7.7444050889        0.8618248993       -5.8617376199
 H        -3.1424812567        9.4801309827       -6.5763571210
 H        -4.8090677906        9.7246986457       -6.0468327063
 H        -4.1667623892       10.7002693063       -7.3578219352
 H        -6.5123259022        8.4343067393       -9.0446584557
 H        -6.3001679172       10.0953005345       -8.6248852627
 H        -6.8200564075        8.8719350577       -7.4338736376
 H         0.3964981035        6.5528262091      -11.8028420407
 H         0.2661868094        6.8325715051      -13.5734478750
 H        -0.2943694804        5.2523401152      -12.7657956597
 H        -2.3316428832        9.0799165163      -13.1865284391
 H        -1.8400514114        8.0782408406      -14.5034628639
 H        -0.6170062973        8.8169384794      -13.6445889722
 H        -6.6956259737        4.3635647423      -14.8758461852
 H        -8.0934657397        5.3135088450      -14.2069948288
 H        -8.3608177924        3.6668766807      -14.4711300977
 H        -8.8382462105        4.8877292505      -11.8572381635
 H        -7.8350400962        3.9232907999      -10.7039656600
 H        -8.8359920877        3.2766829990      -11.9566793438
 Na       -3.3668375363        4.0662708936      -10.7832715889
 Na       -0.4211834906       -7.8940854682       -8.5794235978
