232

 C        -6.3832392415        1.4981505114      -12.9084279094
 C        -5.7062841195        2.7921888998      -12.5395536427
 O        -4.5093151707        2.8672818004      -12.4704877298
 C        -6.5887208211        4.1026704773      -12.4374123958
 C        -5.6840393319        5.4351794747      -12.5173504444
 O        -5.0483860416        5.8527021818      -11.6160693327
 C        -5.7675705242        6.2359598386      -13.8205136744
 C        -4.6293219593        7.2396646022      -13.8788202540
 C        -3.3023307419        6.5320643335      -13.4012681653
 O        -3.1344783032        5.3663997561      -13.4931363788
 C        -2.1787335106        7.5220566251      -12.8669837309
 C        -1.9343116988        7.4227478980      -11.3158023711
 O        -2.2231685828        6.4953888081      -10.5223450625
 C        -1.2205418672        8.6406043739      -10.6441021271
 C        -1.9411414432        8.9213086700       -9.3232356403
 C        -3.4641265243        8.7886814854       -9.4722074247
 O        -3.9324144542        8.9220360104      -10.6123798762
 C        -4.4080573477        8.7387105899       -8.2057799936
 C        -4.3479628539        7.3345332868       -7.4990024621
 O        -3.5761783110        7.0835355792       -6.5929518073
 C        -5.4122050706        6.2568232653       -7.9119027615
 C        -5.5690786605        5.2385481619       -6.7481498596
 C        -6.5686812814        4.0290178084       -6.9530089630
 O        -7.3743494988        4.0135277846       -7.8646592887
 C        -6.3110173834        2.7743255196       -6.0760249909
 C        -4.8540762644        2.3885834263       -6.3861261289
 O        -3.9703578701        2.5987526071       -5.6340403072
 C        -4.6791066061        1.5121885130       -7.6337273922
 C        -3.1528356142        1.3854507046       -8.0403353645
 C        -2.6763887987        2.6775586778       -8.7211566073
 O        -3.5338033925        3.5828363340       -9.0459314263
 C        -1.1664728594        2.7327556256       -8.9001084197
 C        -0.9036542529        2.2667947986      -10.4041851161
 O        -1.5742982566        2.6991224696      -11.3104658128
 C         0.1422862493        1.1828858929      -10.5335175056
 C         0.2178547676        0.3454268660      -11.8042854136
 C        -0.6845510922       -0.9904690596      -11.6622555340
 O        -1.4725675211       -1.1409622915      -10.7455461397
 C        -0.5680982672       -1.9458116537      -12.8307662633
 C         0.3658868448       -3.0469101600      -12.1571301522
 O         1.5752621392       -3.0576034984      -12.3246567285
 C        -0.3600641768       -3.8848476642      -11.0750653807
 C         0.6078283427       -4.0229165399       -9.8494678090
 C         0.3745212193       -5.1789521689       -8.8994295321
 O        -0.4864655383       -6.0239614576       -9.1992222120
 C         1.0835774883       -5.2820876493       -7.5294194897
 C         1.9485230915       -6.5467965887       -7.5683726270
 O         1.4231932006       -7.6057358903       -7.6347826139
 C         3.4050558747       -6.3802230515       -7.3232406955
 C         4.0545144804       -7.7824808160       -7.0404650159
 C         3.5824751128       -8.5793295813       -5.7736864356
 O         3.2380014664       -7.9599631650       -4.7677685297
 C         3.8191463546      -10.0806248855       -5.7291096013
 C         2.6865449339      -10.5982605936       -6.5336039438
 O         2.5657709915      -10.3730013172       -7.7355643976
 C         1.7156685701      -11.5812040739       -5.7895955137
 C         0.7514312151      -12.1366806078       -6.8780772648
 C        -0.0422143250      -11.0027159404       -7.5802514897
 O        -0.3082811743       -9.9687209614       -7.0317794150
 C        -0.4349828672      -11.3613951957       -9.1733983974
 C        -1.6298402855      -10.4670165353       -9.7033210768
 O        -1.3439535184       -9.4059317076      -10.2582382464
 C        -3.0292468051      -10.8019036336       -9.2638170122
 C        -3.9668122849       -9.7038914936       -9.7272055054
 C        -3.8762006596       -8.3699670306       -9.0145929797
 O        -2.9883799723       -8.1424933241       -8.2161496104
 C        -5.1113194048       -7.3704472606       -8.9569446132
 C        -6.3198183021       -7.6710213279       -9.8411863401
 O        -6.8852702251       -8.7205547331       -9.7234769551
 C        -6.7689985192       -6.8050777303      -11.0354003271
 C        -5.9621958761       -7.4451936434      -12.2096887975
 C        -5.3822892392       -6.3280354752      -13.0542030361
 O        -4.2552532219       -5.9415721493      -12.8549600360
 C        -6.2746526745       -5.6230831430      -14.0909972444
 C        -6.7295015495       -4.1930806066      -13.5738540293
 O        -6.7900015040       -3.8320320734      -12.4164296980
 C        -7.2211753153       -3.1989858944      -14.6561585268
 C        -7.3088853617       -1.7521607596      -14.2038008883
 C        -8.7956431279       -1.4067080257      -13.6541933745
 O        -9.0856127842       -1.3334202633      -12.4978401894
 C        -9.9566626985       -1.1064034245      -14.7218675314
 C       -10.2727805267        0.3988555191      -14.4580380493
 O        -9.4709405402        1.3060820699      -14.7953512625
 C       -11.4549985463        0.6926427025      -13.5444041131
 C        -9.4860303288       -1.2364974072      -16.2156181943
 C       -11.2116399608       -2.0154439863      -14.3370325071
 C        -5.4825176770       -5.5254623168      -15.4063000553
 C        -7.7208373076       -6.3020268568      -14.3675727631
 C        -5.4522716850       -7.6351374313       -7.3852175855
 C        -4.4891585904       -5.9349755128       -9.3058053931
 C         0.8707832662      -11.2426556441       -9.9801970970
 C        -0.9762407749      -12.8415938039       -9.2351017455
 C         5.2143234946      -10.4667018553       -6.3767745873
 C         3.8937167887      -10.4190681818       -4.2484095439
 C         1.7000558552       -3.9500787308       -7.1151378248
 C        -0.0336666596       -5.4129036960       -6.4328065585
 C        -1.9996045140       -2.3701849757      -13.1041542736
 C         0.2059937026       -1.3381254290      -14.0034468895
 C        -0.5844703595        4.1929436780       -8.9339323000
 C        -0.4680747436        1.8390262486       -7.8215612369
 C        -6.4561635895        3.2887089100       -4.5183881396
 C        -7.3120829321        1.6602086115       -6.3917802026
 C        -3.7991654761        9.7471110029       -7.1595602761
 C        -5.8441935650        9.0968377741       -8.6026156544
 C        -0.9076574607        6.9984035566      -13.6370834944
 C        -2.4925521048        8.9668872925      -13.3652158804
 C        -7.6090470561        4.0857335374      -13.5902556289
 C        -7.3580904782        4.0110850025      -11.0884379557
 H        -6.8037169952        1.5952127426      -13.8825139418
 H        -7.1499464025        1.0927369720      -12.3005544549
 H        -5.7525329046        0.6201598891      -12.8503947306
 H        -6.7256323097        6.6727835596      -13.7105802945
 H        -5.8417900530        5.6969367704      -14.7730023325
 H        -4.7891068305        8.1655297229      -13.3601399971
 H        -4.4522860190        7.3793734168      -14.9705356989
 H        -1.3672935865        9.4641174350      -11.3318485411
 H        -0.1165414335        8.6218837548      -10.4576688187
 H        -1.8618358321        9.9184647952       -8.9205917056
 H        -1.5910999476        8.1054611840       -8.5971791649
 H        -4.8864140867        5.6991157883       -8.7940231369
 H        -6.4140470819        6.6327135956       -8.1392609668
 H        -5.7272674628        5.8450943806       -5.8458333638
 H        -4.6248234775        4.9175033820       -6.4603819430
 H        -5.3301717576        1.8646560727       -8.4161758230
 H        -5.0258372818        0.5163372240       -7.3304497949
 H        -3.1545596363        0.5096060193       -8.7369364973
 H        -2.6886553666        1.3005970683       -7.0849737466
 H         0.0081377501        0.4763878092       -9.6659290524
 H         1.0056116774        1.7786097465      -10.2791458836
 H         1.2510300710        0.0569274447      -11.8136150593
 H        -0.1795889521        0.8212441335      -12.6507239036
 H        -0.6028087357       -4.8793108948      -11.4195864580
 H        -1.3397460662       -3.5050378751      -10.7308695558
 H         0.5586590598       -3.1566022089       -9.2646016305
 H         1.7628330386       -4.0253425733      -10.1930842032
 H         3.5963989515       -5.5725371799       -6.5710585472
 H         3.7989594173       -5.8146010009       -8.2307768361
 H         5.1185611190       -7.6101633146       -6.8480181183
 H         4.0094721105       -8.4366957074       -7.9042976890
 H         1.2409356348      -11.2206086506       -4.9696123715
 H         2.3481931955      -12.3661414735       -5.3801064817
 H         0.0582298824      -12.7738830437       -6.4167427402
 H         1.3128768759      -12.6285061851       -7.7419609506
 H        -3.0388624353      -10.8243336928       -8.1553274514
 H        -3.3357565813      -11.7401332056       -9.6412146914
 H        -4.9885318578      -10.1191004753       -9.5571341560
 H        -4.0211564834       -9.5731924905      -10.8357774651
 H        -6.5889176155       -5.7783450281      -10.9842043958
 H        -7.7971246859       -6.9870230326      -11.3087082852
 H        -6.6742879753       -8.0166736868      -12.8293538811
 H        -5.2180950543       -8.1714672644      -11.8035480491
 H        -8.2464608700       -3.5666975966      -15.0199223142
 H        -6.5123038550       -3.3599228097      -15.5513464444
 H        -7.2212000961       -1.1495417111      -15.1602516087
 H        -6.4450902514       -1.5694564050      -13.6248383985
 H       -11.3513673371       -0.0815839780      -12.7863370496
 H       -12.4340292768        0.4825866250      -14.0125879393
 H       -11.3448520776        1.7014138928      -13.1240757400
 H        -8.6945428727       -0.4781083163      -16.4947690512
 H       -10.3943830531       -1.1506980117      -16.7267163342
 H        -9.0706205574       -2.2032118839      -16.4007969828
 H       -12.2398786271       -1.6029041621      -14.6265675054
 H       -11.1688697361       -2.0890243005      -13.2536701131
 H       -11.2700984383       -3.0320759995      -14.7613524780
 H        -6.1152888408       -5.0560027948      -16.2450185762
 H        -5.1873575101       -6.4941899754      -15.7516341565
 H        -4.6211070964       -4.9181170337      -15.1776385065
 H        -8.2620020985       -6.3339533441      -13.4144073442
 H        -7.7972499920       -7.2762987450      -14.9204054699
 H        -8.1579763956       -5.5728644752      -14.9817667541
 H        -4.7820074397       -7.1350619002       -6.6699834681
 H        -5.2782914445       -8.7142382879       -7.3035565661
 H        -6.4482464953       -7.3016896924       -7.1404322356
 H        -3.9116077294       -6.1561658507      -10.1413000226
 H        -3.9993041165       -5.5733292278       -8.4380651843
 H        -5.2728221952       -5.2270983893       -9.6599692700
 H         1.5940333523      -11.8871286130       -9.5051687230
 H         1.2385960812      -10.2630186411       -9.8822507205
 H         0.6630884147      -11.6725369435      -10.9558589993
 H        -1.2886843855      -13.0373235029      -10.2844636061
 H        -1.7890348973      -13.1463089211       -8.5618087296
 H        -0.1345308247      -13.5093744539       -9.0301996322
 H         5.2495382367      -10.5816073478       -7.5031880912
 H         5.7697394844      -11.3074457299       -5.9056731983
 H         5.8868141948       -9.6048885251       -6.2447853345
 H         4.7039468484       -9.7660868247       -3.9391565890
 H         4.1716150008      -11.4408380265       -4.1542796213
 H         3.0286055674      -10.1721628600       -3.6535572847
 H         1.8351449078       -3.9282643469       -6.0222700938
 H         1.0207885220       -3.0890188156       -7.2483475028
 H         2.6330526028       -3.7573537610       -7.5653235842
 H        -0.9456806207       -5.8992868274       -6.6327808674
 H        -0.4812080546       -4.4007691240       -6.3398100502
 H         0.3826520490       -5.7384746137       -5.5373713771
 H        -2.4829689706       -1.4907810701      -13.5666223642
 H        -2.5609196447       -2.6013274991      -12.2043727413
 H        -1.9772870310       -3.2998379400      -13.7124944705
 H         1.2317964464       -0.9506530605      -13.8396566325
 H        -0.3873064315       -0.6248419291      -14.6120199163
 H         0.4699900619       -2.1925527360      -14.7388917113
 H        -0.6078477998        4.4827912278       -7.8906471729
 H        -1.1072541657        4.9742867516       -9.5290973988
 H         0.4684562049        4.1604451829       -9.3483843665
 H         0.5450914683        1.5465856538       -8.0718622501
 H        -1.0294109180        0.9813669006       -7.6008845920
 H        -0.4969758262        2.6162501568       -7.0363864044
 H        -6.0464681376        4.2846235000       -4.4585842533
 H        -5.8599497256        2.6614554264       -3.8826465635
 H        -7.5322923003        3.3169656131       -4.1448270312
 H        -7.5386197724        1.5068309066       -7.4867900425
 H        -8.2449259183        1.9914252432       -5.9524925735
 H        -6.9113483837        0.7056231346       -6.0062543620
 H        -2.8036758243        9.4780276977       -6.8885931253
 H        -4.3498659468        9.8057878345       -6.2042980608
 H        -3.7619281484       10.8339082154       -7.4789549380
 H        -6.1529601232        8.3799946981       -9.3871835882
 H        -6.0425223000       10.1196907351       -8.9141106481
 H        -6.5809292119        8.9523942828       -7.7498638754
 H        -0.0760062863        6.8068859231      -12.9369720382
 H        -0.6185532488        7.6632945838      -14.3983427447
 H        -1.1734702531        6.0529086418      -14.1249435605
 H        -3.2145347453        9.5016803752      -12.7715350371
 H        -2.8481728804        8.9635972008      -14.4754120636
 H        -1.5616752585        9.5104203827      -13.3858423400
 H        -7.1866254563        4.0623650581      -14.5807433900
 H        -8.1996754595        4.9891485179      -13.5177605559
 H        -8.1750295109        3.1877881306      -13.5072905825
 H        -7.6927973408        4.9177485338      -10.7570984371
 H        -6.8017032523        3.7490821858      -10.1731902968
 H        -8.1001086208        3.2739890420      -11.1440301966
 Na       -3.2268331307        4.3866634322      -11.1054165036
 Na       -0.6754036674       -8.1129799509       -8.4082017976
