232

 C        -6.4068038670        1.5406173476      -12.8318796367
 C        -5.6574395812        2.8170677305      -12.6370756887
 O        -4.4520503769        2.7862366011      -12.5021427498
 C        -6.5763643366        4.0790579346      -12.3451420051
 C        -5.8031244165        5.3912854861      -12.3883768301
 O        -5.2534079570        5.7421975011      -11.3078528252
 C        -5.6931169201        6.1310597339      -13.6950225940
 C        -4.6868600547        7.2197888505      -13.9666784836
 C        -3.2769286214        6.7758580957      -13.7271775400
 O        -2.9868232843        5.5598982080      -13.8895915832
 C        -2.1719753612        7.7234695722      -13.1466730387
 C        -1.9759555648        7.4525200634      -11.5792364040
 O        -2.2917541329        6.3522248690      -11.2159038437
 C        -1.2685623450        8.5155110320      -10.7401224950
 C        -1.9605988883        8.9480659241       -9.4072631989
 C        -3.5745340976        8.8832608802       -9.5296041561
 O        -4.0650829563        8.9029804397      -10.6127845175
 C        -4.3731692727        8.8659740714       -8.1997938940
 C        -4.3734756050        7.4032683697       -7.5581894046
 O        -3.5409722640        7.1587597348       -6.7159023462
 C        -5.4526348278        6.3489827476       -7.9115853501
 C        -5.4169223023        5.1842435193       -6.8644344633
 C        -6.4226781063        4.1036224025       -6.9661093958
 O        -7.2367025160        4.0691352492       -7.8755178119
 C        -6.3087506982        2.8171888084       -5.9229800802
 C        -4.8756861062        2.4037798279       -6.3127876892
 O        -3.8712496420        2.5735060580       -5.5996449010
 C        -4.7304278572        1.7334850971       -7.6686943341
 C        -3.2734913355        1.5311835237       -8.0988396461
 C        -2.6684313266        2.8271209137       -8.5465226764
 O        -3.1631283319        3.8322646296       -8.8789340443
 C        -0.9813786695        2.7817422409       -8.7883057456
 C        -0.8629921504        2.2060118271      -10.2537489657
 O        -1.5939906032        2.4628487205      -11.1758229675
 C         0.2184468384        1.1480861020      -10.4918358328
 C         0.1920992317        0.4260616834      -11.8386859907
 C        -0.7755686376       -0.8196296793      -11.8376197346
 O        -1.4220121667       -1.1222706316      -10.8563243337
 C        -0.7734189965       -2.0587837785      -13.0094045502
 C         0.3511760268       -2.9858310105      -12.2081416272
 O         1.5401313014       -2.8972549574      -12.3505284856
 C        -0.1792204893       -3.9476506776      -11.0874852038
 C         0.6787520317       -3.9754080658       -9.8017521575
 C         0.3002848154       -5.1353565942       -8.8419461836
 O        -0.4507851163       -5.9594992323       -9.2877071941
 C         0.8690682643       -5.2237222757       -7.3965668178
 C         1.7403477813       -6.4505476362       -7.3790764042
 O         1.2958536975       -7.5989078498       -7.6102105244
 C         3.3526119136       -6.3973447700       -7.1412623809
 C         3.9917279970       -7.7386146948       -7.0988062329
 C         3.7892094817       -8.3668601101       -5.7549160265
 O         3.3998793956       -7.6761961330       -4.8686645782
 C         3.8441109143      -10.0210930418       -5.5893699193
 C         2.6209471477      -10.5579422351       -6.4685877124
 O         2.7120080477      -10.3309877612       -7.6470412636
 C         1.6130901848      -11.5729698705       -5.8881173742
 C         0.7324187147      -12.2805088195       -6.8445340388
 C        -0.0920773507      -11.2649838547       -7.7937849585
 O        -0.2601449079      -10.1583004793       -7.3451477129
 C        -0.5297521475      -11.5678124878       -9.3259275607
 C        -1.6314209712      -10.5493973317       -9.6267566825
 O        -1.4165713655       -9.5042313060      -10.1639512044
 C        -3.0716753973      -10.8759581917       -9.3074224663
 C        -4.1602432950       -9.7986644092       -9.6358821786
 C        -4.0086183481       -8.4750884025       -8.8335616916
 O        -2.9694299068       -8.2720972439       -8.2734205436
 C        -5.2789984214       -7.4576197260       -8.5021959602
 C        -6.3181837098       -7.8743112573       -9.6695555876
 O        -6.9039957782       -8.9495114939       -9.6344351744
 C        -6.5365569709       -6.9982784076      -10.9003858026
 C        -5.9710421439       -7.5379403125      -12.2516565261
 C        -5.4696813746       -6.3822516384      -13.1219593675
 O        -4.2878178056       -6.1566443872      -13.1245052980
 C        -6.3897593675       -5.6589469950      -14.1987035973
 C        -6.6244801952       -4.1517952611      -13.5855212199
 O        -6.4598068370       -3.8129619405      -12.4391738347
 C        -6.9932652851       -3.0963956848      -14.6421396304
 C        -7.2380948749       -1.6665899374      -14.0798579011
 C        -8.6678974495       -1.4270960975      -13.5694862705
 O        -8.8825675304       -1.4105697721      -12.3816229443
 C        -9.8781418722       -1.1218887198      -14.5744005291
 C       -10.1463154428        0.4822753249      -14.2771745922
 O        -9.2949900324        1.2628993670      -14.5637140914
 C       -11.4525216651        0.8711385591      -13.5209951856
 C        -9.3981791997       -1.1705845964      -16.0829331214
 C       -10.9921806178       -2.1575847816      -14.4006001005
 C        -5.5722208119       -5.5395929805      -15.5087408262
 C        -7.6385649888       -6.4102865098      -14.3211679091
 C        -6.0768216314       -7.5219205591       -7.1075948199
 C        -4.6611825985       -6.0617611724       -8.7750686553
 C         0.7506001328      -11.0422143969      -10.1395068308
 C        -0.9151859491      -13.0099861975       -9.4935562084
 C         5.1965884907      -10.4805031986       -6.3706513839
 C         3.8893130180      -10.4934443663       -4.1391498708
 C         1.7353820250       -4.0351841669       -7.0923929124
 C        -0.3309354396       -5.4425082993       -6.3526100635
 C        -2.1021982880       -2.8912742148      -13.3063080844
 C        -0.1823265270       -1.6215555923      -14.3044093519
 C        -0.4059555930        4.1774287033       -8.9484132279
 C        -0.1394856077        2.0027203271       -7.6137070042
 C        -6.4083350010        3.0990857017       -4.4616930266
 C        -7.4183564216        1.8111127339       -6.3189466258
 C        -3.7996313159        9.8336585450       -7.1592988677
 C        -5.8012336971        9.3200803933       -8.5574699283
 C        -0.7364453260        7.4092602358      -13.6539870207
 C        -2.5248492122        9.2540287523      -13.3767727880
 C        -7.7221196188        4.2553580348      -13.4423400239
 C        -7.2064670610        3.9310065500      -10.9431088965
 H        -6.7934950642        1.3744748181      -13.8663140895
 H        -7.2941300882        1.3718357766      -12.1883011012
 H        -5.9330010606        0.6483807010      -12.4901873510
 H        -6.7097115751        6.4335591493      -14.0901553655
 H        -5.4820650687        5.2874045180      -14.3454150888
 H        -4.8553090658        8.0169390599      -13.2411212963
 H        -4.7873886039        7.4955062316      -14.9871467350
 H        -0.8986401223        9.4016385803      -11.2846903815
 H        -0.3522791832        7.9544137841      -10.5051830445
 H        -1.6913071820       10.0425693080       -9.1879478182
 H        -1.6375985385        8.3191084449       -8.5897213107
 H        -5.2863547715        5.9428003964       -8.8220158358
 H        -6.4312509919        6.8770380930       -7.9238787208
 H        -5.2128382868        5.4445413827       -5.8290464286
 H        -4.3696449375        4.7483462761       -7.0459010960
 H        -5.3014005770        2.2910096377       -8.4434062897
 H        -5.2469964731        0.7787397188       -7.4683926259
 H        -3.3494061895        1.0207723881       -9.0071822086
 H        -2.6828497804        1.0189627922       -7.2992321849
 H         0.1474912816        0.4156221859       -9.6775933514
 H         1.1312169162        1.7009411958      -10.2799600255
 H         1.2067730914       -0.0172886415      -12.0125156432
 H        -0.3137579470        1.0937968098      -12.6224258985
 H        -0.2743082057       -4.9755212267      -11.5280368295
 H        -1.2072904510       -3.6899382910      -10.8681407594
 H         0.7910587843       -2.9260846300       -9.3445836613
 H         1.6185178117       -4.1146350687      -10.0830149710
 H         3.5402433515       -5.8400408655       -6.2494707665
 H         3.8103146242       -5.7485246283       -7.8304057391
 H         5.0552631155       -7.5786351370       -7.2785903484
 H         3.6244169419       -8.4150831763       -7.8814514090
 H         1.0348357862      -11.0911779578       -4.9812089335
 H         2.2656203234      -12.2607401706       -5.3164409692
 H        -0.1226125596      -12.8541491031       -6.2899975141
 H         1.3320202779      -12.8981097272       -7.4644770938
 H        -3.0785503350      -11.1390836574       -8.2402793968
 H        -3.3256592383      -11.7942564846       -9.9621495816
 H        -5.1247986610      -10.1995617317       -9.5471543614
 H        -4.0756522764       -9.6110400393      -10.7127538505
 H        -6.1578493165       -5.9623808117      -10.7492552411
 H        -7.6160861968       -6.8970373788      -11.1199129307
 H        -6.7127607682       -8.1832242708      -12.7498452588
 H        -5.1173380355       -8.1707303318      -12.0325886118
 H        -7.8673672481       -3.5314776461      -15.0412273234
 H        -6.2886970499       -3.1147786248      -15.4034050367
 H        -6.9694295340       -0.9824445933      -14.8043588167
 H        -6.4950018920       -1.6538992181      -13.2379147760
 H       -11.3496831498        0.8036908525      -12.3985020818
 H       -12.1798790916        0.1468041914      -13.8154447056
 H       -11.6774850172        1.9063709521      -13.8194220760
 H        -8.7561491278       -0.3329036929      -16.1782960799
 H       -10.3115573897       -1.1391222671      -16.7695727048
 H        -8.7226222139       -2.0482083534      -16.2253487910
 H       -11.4141312497       -2.3359708545      -15.3410936834
 H       -11.8257361704       -1.9785910277      -13.6668700059
 H       -10.6066195249       -3.1746214551      -14.2314132391
 H        -6.3444322111       -5.4453376992      -16.2291756182
 H        -4.8432939605       -6.4141106823      -15.7984897275
 H        -4.9196906628       -4.6319529839      -15.4630878858
 H        -8.2413311884       -6.3851162914      -13.4391754060
 H        -7.2945205333       -7.3645828172      -14.5933321569
 H        -8.2816163597       -5.9825282430      -15.1700505749
 H        -5.8782854649       -6.6559897544       -6.5255036521
 H        -5.8680981991       -8.3859362890       -6.5135111040
 H        -7.1246391963       -7.3710478952       -7.3031457318
 H        -4.5570951147       -5.8929839705       -9.8575058227
 H        -3.7526007457       -6.0772726292       -8.1718039064
 H        -5.3086465774       -5.3733486986       -8.3511074173
 H         1.5388346995      -11.7074762601       -9.8632790633
 H         1.0189236890       -9.9942366958       -9.8415022320
 H         0.4773179487      -11.2331018648      -11.1520471497
 H        -1.2173787971      -13.1806087050      -10.4968656747
 H        -1.6713025666      -13.2341894479       -8.7886347361
 H        -0.1210252947      -13.6401548378       -9.1788385637
 H         5.2936205700      -10.2062124909       -7.3696820620
 H         5.2317498566      -11.5205137161       -6.2401862046
 H         6.1236579355      -10.1840870619       -5.9298571914
 H         4.8995369150      -10.4683943252       -3.7069693186
 H         3.3868733209      -11.5014625970       -4.0551912834
 H         3.2497509276       -9.7596095648       -3.5895525687
 H         2.4093011470       -4.1744930733       -6.2668711762
 H         1.1372971941       -3.1623363399       -6.8829469022
 H         2.4076115068       -3.8357057349       -7.9659777259
 H        -0.8090719148       -6.4441080542       -6.4204629675
 H        -1.1490852825       -4.8192077493       -6.4569846392
 H         0.0952767636       -5.3352217816       -5.3152776129
 H        -2.6324775409       -2.4992030498      -14.1427848437
 H        -2.7298603652       -2.9751980047      -12.4558667550
 H        -1.7592595955       -3.9050607338      -13.5074344180
 H         0.8319841905       -1.3142487255      -14.1618461172
 H        -0.7766102880       -0.9626591106      -14.8591072662
 H        -0.0098355432       -2.3880680547      -14.9995312239
 H        -0.4395486814        4.6425207828       -7.9555077778
 H        -1.1069282390        4.6895664369       -9.5903022657
 H         0.5508199787        4.2509998997       -9.3961140276
 H         0.8110637582        2.5482254705       -7.6082559454
 H         0.0826933830        0.9137718773       -7.8382263717
 H        -0.7150704745        2.1656479438       -6.7402809046
 H        -5.9729611504        4.0986928717       -4.1857239555
 H        -6.0446457151        2.2088216032       -3.8326333089
 H        -7.4704386386        3.0848136884       -4.2315533442
 H        -7.2793297155        1.6591293506       -7.3481406353
 H        -8.4188657568        2.2230081358       -6.2362905578
 H        -7.3083533311        0.8306413082       -5.8768112479
 H        -2.8092462376        9.5814233854       -6.7130303491
 H        -4.4153348566        9.9024987431       -6.2771556856
 H        -3.7184168994       10.8095502747       -7.5234637219
 H        -6.2711063276        8.8294050410       -9.3929381468
 H        -5.6942257742       10.3624881983       -8.8177171463
 H        -6.4778446269        9.3363057593       -7.7719409612
 H        -0.0920225563        8.0683480914      -13.0157204031
 H        -0.6655660467        7.6824504471      -14.7720073441
 H        -0.4003044106        6.3508140464      -13.5647112891
 H        -3.3279108926        9.5748256365      -12.6748976547
 H        -2.7721447894        9.4801398609      -14.3588073898
 H        -1.6305429112        9.8789241240      -13.2077941730
 H        -7.3572331041        4.2106537244      -14.4873459414
 H        -8.2992058679        5.1812011109      -13.2596712986
 H        -8.4200047681        3.3772108004      -13.3497999313
 H        -7.8598820627        4.7761103449      -10.5061772636
 H        -6.4795163862        3.8881122126      -10.1670619748
 H        -7.8537282934        3.0085738627      -10.8259262264
 Na       -3.3212702167        4.3569256148      -11.4869047411
 Na       -0.8588276522       -8.1452810742       -8.3379882504
