232

 C        -6.5320474995        1.5430915548      -12.8690146009
 C        -5.7995552921        2.7832466666      -12.5605392977
 O        -4.6050503894        2.8485426535      -12.5661103678
 C        -6.6586265423        4.0237801769      -12.3121081685
 C        -5.8007989842        5.3375965015      -12.4205909374
 O        -5.3562612231        5.8192167891      -11.3849860915
 C        -5.6987520500        6.0750105985      -13.7525600331
 C        -4.6850492183        7.2548145853      -13.7027189596
 C        -3.1405484701        6.8103205379      -13.7379648969
 O        -2.8078514416        5.6847739913      -13.9787455204
 C        -2.1362019739        7.9113468740      -13.2512939240
 C        -2.0338001501        7.5176600671      -11.7038533288
 O        -2.2329258067        6.3387786552      -11.3642072259
 C        -1.2890263446        8.3892775303      -10.7043934227
 C        -2.0956162599        8.7866664693       -9.4475559151
 C        -3.6149385037        8.7708270540       -9.4834686011
 O        -4.1087470840        8.8220868401      -10.6136179342
 C        -4.4524003034        8.9734538529       -8.1919963291
 C        -4.4336917378        7.5068218589       -7.4625455608
 O        -3.4139619108        7.1800308881       -6.8748276817
 C        -5.4432161925        6.3802208657       -7.8405388921
 C        -5.2475696961        5.2020301159       -6.8063924305
 C        -6.4123370732        4.1912078950       -6.8988739333
 O        -7.1843720745        4.1414695928       -7.8569595876
 C        -6.3444943335        2.9560523390       -5.9637053207
 C        -4.8564914176        2.3490592389       -6.3463522184
 O        -3.9562961962        2.4799343121       -5.6074566623
 C        -4.6355414181        1.6919707757       -7.7853478987
 C        -3.1650723240        1.5782357487       -8.1889927989
 C        -2.3851652083        2.8492579181       -8.5836740522
 O        -3.0132751478        3.8952895108       -8.7982031604
 C        -0.9027383531        2.8505925295       -8.8656993683
 C        -0.7895507911        2.0804304121      -10.2056428730
 O        -1.6011370674        2.4082908492      -11.0276200664
 C         0.2901650621        0.9232072430      -10.6102354186
 C         0.0752532559        0.3720993043      -12.0664061867
 C        -0.8682697739       -0.9611195553      -11.9251524292
 O        -1.5070383850       -1.0200940219      -10.8888924537
 C        -0.6953320963       -2.1518443041      -12.9448387503
 C         0.3143401118       -2.9735281794      -12.1822646562
 O         1.4622654057       -2.7382660628      -12.4632337332
 C        -0.1537435662       -3.9707792265      -11.0773957351
 C         0.7014456018       -3.9611882433       -9.7919410532
 C         0.3194594952       -5.1371608701       -8.8790089894
 O        -0.5197394891       -5.9910858467       -9.2350195329
 C         0.9295537645       -5.2174006849       -7.4345118420
 C         1.7208513062       -6.5335341168       -7.4143135076
 O         1.2809171490       -7.6509816596       -7.5558300209
 C         3.2807369616       -6.3799590499       -7.1402591291
 C         3.9491054068       -7.7148783780       -7.2089194828
 C         3.6780333039       -8.4762194363       -5.7818053636
 O         3.5523379050       -7.7783773484       -4.7783560929
 C         3.7638761054       -9.9733411215       -5.5765510229
 C         2.6939593389      -10.5981659576       -6.5098003319
 O         2.6295593768      -10.3786161455       -7.6930804557
 C         1.5955472732      -11.5383646095       -5.8784586860
 C         0.7569476478      -12.2646009393       -6.9425834737
 C         0.0096364623      -11.3113224954       -7.8258460252
 O        -0.3236499911      -10.2446474765       -7.3691099995
 C        -0.4790295624      -11.6358771187       -9.3390291114
 C        -1.7225223622      -10.6182057588       -9.7189803790
 O        -1.3925679370       -9.5194478267      -10.1858593793
 C        -3.1521367670      -11.0241123351       -9.3154589015
 C        -4.1601869932       -9.9020767766       -9.4611693315
 C        -4.1090337655       -8.6884595181       -8.4417981293
 O        -3.0654475352       -8.2206878169       -8.1531438670
 C        -5.3756750150       -7.5526663275       -8.3971132997
 C        -6.3461891126       -7.8811089608       -9.6601432194
 O        -6.8892026591       -8.9450670238       -9.4868395602
 C        -6.6185454564       -6.9599545584      -10.8741630813
 C        -5.9092187100       -7.5663206279      -12.1601991949
 C        -5.3400267977       -6.5182162257      -13.1951536235
 O        -4.1801403443       -6.1881327060      -13.2067007711
 C        -6.4034538199       -5.7244838975      -14.2390036526
 C        -6.5196293720       -4.1503404692      -13.6249857401
 O        -6.2961009140       -3.9231240046      -12.4401381174
 C        -6.9134829426       -3.0624715742      -14.6666319828
 C        -7.1592064928       -1.6697349806      -14.0339689947
 C        -8.6231068929       -1.4178268317      -13.4695685968
 O        -8.9259564696       -1.4392146816      -12.3160739679
 C        -9.7670892659       -1.0713247240      -14.5565331125
 C       -10.1651891545        0.3921030969      -14.2266797616
 O        -9.2439667935        1.2099023879      -14.4211732475
 C       -11.4062147468        0.9629369838      -13.5781482765
 C        -9.2910751688       -1.0070005427      -16.0108727740
 C       -10.8992519029       -2.2116176769      -14.3272563796
 C        -5.6436980921       -5.6019745704      -15.5937408579
 C        -7.7637119676       -6.3476417455      -14.4444245650
 C        -6.3145602398       -7.6626890656       -7.1812989244
 C        -4.7692016375       -6.1558685611       -8.5271212920
 C         0.7193722489      -10.9763001337      -10.2509663776
 C        -0.9242492958      -13.0831742996       -9.5719413692
 C         5.1651109566      -10.4260080850       -6.1931781647
 C         3.8705347202      -10.3804656153       -4.1389356871
 C         1.5750916514       -3.8600344053       -6.9848084905
 C        -0.2624057783       -5.3739622366       -6.4844427256
 C        -1.9891616152       -2.9624318944      -13.1501990390
 C        -0.2159162670       -1.6950468356      -14.3422149520
 C        -0.4590148855        4.2908914042       -8.9287933726
 C        -0.2238224098        2.1267240261       -7.5592832553
 C        -6.4048130246        3.2259556604       -4.4168337047
 C        -7.4387485262        1.8820037600       -6.2893512609
 C        -3.7847295298        9.8630535834       -7.1849314270
 C        -5.8588953325        9.5403769922       -8.6157561733
 C        -0.6756866803        7.6794450368      -13.7805308366
 C        -2.5068596311        9.4139126498      -13.5507886022
 C        -7.8676215793        4.0294521729      -13.3135084246
 C        -7.1276020512        3.8832702276      -10.8477492382
 H        -6.7797070683        1.6905773402      -13.9254432185
 H        -7.4661822470        1.2638055302      -12.3919679534
 H        -6.0311244779        0.5880374294      -12.7619916702
 H        -6.7191408818        6.4819938130      -14.0135236362
 H        -5.5900937145        5.3073814077      -14.5434643465
 H        -4.9682549764        7.7912605003      -12.8066776104
 H        -4.8076181824        7.8466691561      -14.6587727725
 H        -0.9653913390        9.2830448664      -11.1201905590
 H        -0.3781562561        7.8400414239      -10.4634193278
 H        -1.7312166411        9.7592931048       -9.2013142966
 H        -1.9523304460        8.1262599719       -8.6378996917
 H        -5.3753733721        6.0626680606       -8.8938846764
 H        -6.4898959830        6.7816991833       -7.7191311878
 H        -5.0176506721        5.4877316433       -5.7431529532
 H        -4.2633638820        4.7577989643       -7.0206105640
 H        -5.1806987858        2.3533024044       -8.4450800693
 H        -5.1920409385        0.7328771394       -7.7489699035
 H        -3.0352140224        0.8325949424       -8.9488601781
 H        -2.7429891382        1.3344226735       -7.1701539138
 H         0.2555379204        0.1519509741       -9.6953437723
 H         1.2915751354        1.4090088888      -10.5121909343
 H         1.0229633311        0.1128283922      -12.5160714511
 H        -0.5650794564        1.1173193272      -12.5111779977
 H        -0.2332529953       -4.9720126500      -11.5600419788
 H        -1.1597149369       -3.7370263117      -10.8361686681
 H         0.5567212667       -2.9855980054       -9.2640993604
 H         1.8446409456       -3.8272543182      -10.0499375404
 H         3.3902621742       -5.8428070396       -6.1935122974
 H         3.7017112366       -5.5861937688       -7.7690942997
 H         5.0347073162       -7.5323358135       -7.2386488040
 H         3.6679881617       -8.2681529404       -8.1237554000
 H         0.9561558563      -10.8201758364       -5.3163434752
 H         1.9858505172      -12.2097276120       -5.0126997929
 H        -0.0640642446      -12.9288088975       -6.4561496788
 H         1.4805667771      -12.8487317857       -7.5697530628
 H        -2.9553959199      -11.2368186218       -8.2774265640
 H        -3.4531808234      -11.9209319142       -9.8691507340
 H        -5.1949915048      -10.2562932091       -9.5994601955
 H        -3.8897112683       -9.4435119243      -10.5266570153
 H        -6.4123496521       -5.8719218127      -10.7448990791
 H        -7.7579750976       -7.0467236086      -11.1365641168
 H        -6.5535040484       -8.3285972473      -12.5749731781
 H        -5.0865172790       -8.0746542783      -11.7868590286
 H        -7.7775214286       -3.4172700369      -15.1695775591
 H        -6.1432285334       -3.0293659822      -15.3705011499
 H        -6.9835429171       -0.9893834024      -14.8891689407
 H        -6.3313208533       -1.5223170834      -13.2911103969
 H       -11.1053772560        1.0618836308      -12.5255137913
 H       -12.2576821004        0.3546968397      -13.6615381596
 H       -11.4810975273        1.9747481369      -13.9421658435
 H        -8.4279323991       -0.3042159771      -16.1113794254
 H       -10.1656869347       -0.6264334607      -16.4728989873
 H        -8.9895738641       -1.9650097656      -16.3935067619
 H       -11.5616016253       -2.4623814442      -15.1095749874
 H       -11.4534731509       -2.0809151236      -13.4414473368
 H       -10.3458047958       -3.1199661116      -14.2363381449
 H        -6.4324086922       -5.2768743106      -16.3201392222
 H        -5.3747892681       -6.6132822186      -15.8574250366
 H        -4.7325765814       -5.1099335304      -15.6068983529
 H        -8.4115024084       -6.3093869445      -13.5962481687
 H        -7.5760916144       -7.3505403676      -14.8928793308
 H        -8.2745331176       -5.7064875437      -15.1875982070
 H        -6.0375013503       -6.8703386591       -6.5231625168
 H        -6.3115850326       -8.6006186713       -6.5732413448
 H        -7.3139166184       -7.3468638856       -7.4296465342
 H        -4.8023449269       -5.7997839692       -9.5420752474
 H        -3.7929930434       -6.2350930926       -8.0298657017
 H        -5.3986329591       -5.5350342858       -7.8440751636
 H         1.6068607002      -11.5836217519      -10.1637540365
 H         0.9248539746       -9.9420835979       -9.8846600841
 H         0.2933901822      -11.0718243913      -11.2708621100
 H        -1.3953991280      -13.1723448537      -10.5792080967
 H        -1.6432143742      -13.1982751050       -8.7820370535
 H        -0.2254171182      -13.8672200497       -9.2961104313
 H         5.4413696781       -9.8826754652       -7.0886868681
 H         5.0702011643      -11.4639333923       -6.3871382100
 H         6.0148696555      -10.3986316326       -5.5897678806
 H         4.9203111135      -10.2919603172       -3.8733396266
 H         3.5614372057      -11.4432056710       -4.0404183003
 H         3.3045321330       -9.7397466403       -3.4477342039
 H         1.9204259434       -3.8025897806       -5.9440197088
 H         0.7310834853       -3.1346844973       -7.1151538720
 H         2.3898308965       -3.4914094273       -7.5876295178
 H        -0.7034146949       -6.4042185420       -6.3615551590
 H        -1.1553875650       -4.7313710078       -6.7205518541
 H         0.0742208483       -5.0384812201       -5.4758682574
 H        -2.5533107134       -2.4596749646      -13.9446738850
 H        -2.5170712465       -2.9454705827      -12.2608820178
 H        -1.8350165447       -4.0452657838      -13.4435425891
 H         0.8428650685       -1.5331801137      -14.3624452555
 H        -0.8213113338       -1.0000175726      -14.7737251514
 H        -0.2909851409       -2.4733314479      -15.1293283135
 H        -0.6290960603        4.7365998922       -7.9864092759
 H        -1.0760560288        4.7517546702       -9.7154529671
 H         0.5945816117        4.4141486220       -9.2105279708
 H         0.7640883077        2.5921527237       -7.5887712268
 H        -0.0641036418        1.0790952131       -7.8082204453
 H        -0.8419337358        2.2625460510       -6.6791093015
 H        -5.6768745128        3.9606031775       -4.1305796201
 H        -6.3697211378        2.2733760134       -3.9125897439
 H        -7.4285927658        3.5339670438       -4.1157306918
 H        -7.3893174518        1.4550069826       -7.2858395660
 H        -8.3748659902        2.3627039477       -6.2108185595
 H        -7.3986677543        1.0192505537       -5.5902036150
 H        -2.8695570553        9.4659741498       -6.7920229792
 H        -4.3662297190        9.9452492546       -6.2697786185
 H        -3.5474952674       10.8717969880       -7.4974913074
 H        -6.3467617817        9.1563069349       -9.5189625196
 H        -5.7060355821       10.5483502116       -8.8078169987
 H        -6.5892766323        9.5206478360       -7.8230101673
 H         0.0132105356        8.5514283409      -13.6256453725
 H        -0.8658534250        7.4709314308      -14.7789692063
 H        -0.2118970427        6.7889387426      -13.3820677215
 H        -3.1675845837        9.7967706528      -12.8232934534
 H        -2.8846576247        9.5395204013      -14.6010436653
 H        -1.6243384500       10.0119136827      -13.5657166982
 H        -7.4863145931        4.0803637278      -14.3703788248
 H        -8.6210512269        4.8240585446      -13.1145748997
 H        -8.4155646987        3.0659060926      -13.2459200964
 H        -7.8838971495        4.5652929028      -10.4346296647
 H        -6.2510882217        4.0734244048      -10.1273642504
 H        -7.5774659912        2.9084012161      -10.5757401973
 Na       -3.1553724495        4.3605120890      -11.6026679105
 Na       -0.8311712284       -8.0990382660       -8.3479577434
