232

 C       -21.9470175662       -7.7423316784       -3.2756508813
 C       -20.9892181684       -6.5770096250       -3.4608624441
 O       -20.0497271620       -6.4469751602       -2.7237286068
 C       -21.0657059652       -5.6677446372       -4.7066279834
 C       -20.3341136616       -4.2203597930       -4.4573552011
 O       -20.1792818248       -3.8349496393       -3.3148941758
 C       -19.9699702702       -3.3612794005       -5.6600120697
 C       -18.5996255041       -3.7222513675       -6.3640758172
 C       -17.5140592688       -4.1771994950       -5.3814775773
 O       -17.5471144614       -5.2468561308       -4.8288962043
 C       -16.2730647612       -3.1842865026       -5.1095212880
 C       -16.4242338794       -2.7247860538       -3.6315809983
 O       -17.5664918593       -2.4242305250       -3.2419524226
 C       -15.1665992278       -2.6029473058       -2.6836049249
 C       -15.8326941071       -2.4172600899       -1.2768425388
 C       -16.0886853523       -3.7184078924       -0.5398440799
 O       -16.7216948412       -4.6337817091       -0.9917046431
 C       -15.3605037265       -4.0152020120        0.8679310040
 C       -14.0071024648       -4.5384438523        0.2642269320
 O       -13.3038433028       -3.7495616244       -0.2187653090
 C       -13.6726623681       -6.1164066583        0.2763564482
 C       -12.3811926737       -6.6368560607       -0.4692473103
 C       -12.3612370371       -6.4610138980       -1.9932644931
 O       -12.9452385193       -5.6152867191       -2.6056062417
 C       -11.5244685405       -7.5160152013       -2.8281971516
 C       -10.0645490577       -6.8147057559       -3.3027177615
 O        -9.6635398418       -5.8727264740       -2.6578801618
 C        -9.3988307679       -7.5349263854       -4.4508520686
 C        -7.8561879362       -7.3386254086       -4.5940836269
 C        -7.3287745075       -5.9329184177       -4.8156220088
 O        -7.8531282699       -5.1683390632       -5.6398053029
 C        -5.9974787032       -5.5188967078       -4.0806451027
 C        -4.8546366977       -6.1402795616       -5.1089255007
 O        -4.7223900833       -7.3450941567       -5.1839340990
 C        -4.0689667958       -5.1047810237       -5.9844283494
 C        -2.8010590088       -4.7440193738       -5.1834010888
 C        -1.9931564137       -3.6914528364       -6.0070423764
 O        -2.4133869599       -2.7715728290       -6.6586632840
 C        -0.4220256957       -3.9515398775       -6.0341134235
 C        -0.3318752652       -4.8707424950       -7.2823586692
 O        -0.0098963584       -6.0396250634       -7.1899429989
 C        -0.9262199679       -4.2921527750       -8.7207994489
 C        -0.5459018787       -5.1124449575       -9.9325852649
 C         0.9325570061       -4.8570211751      -10.3458201713
 O         1.6307691348       -4.2825388337       -9.4834267303
 C         1.5177024593       -5.6116192397      -11.6462985434
 C         1.6369330112       -4.6223434071      -12.8390568049
 O         0.7884553732       -4.7701577745      -13.6858862416
 C         2.7792489894       -3.5769394536      -12.9176219517
 C         2.4813665378       -2.4712946617      -14.0367865291
 C         2.9829039512       -1.1302297210      -13.5516268343
 O         2.2172837571       -0.3681523016      -12.9290022108
 C         4.5344754804       -0.7498529980      -13.6881223147
 C         4.5969764434        0.5961473290      -14.5630772967
 O         5.5050712693        0.6652964450      -15.3974072429
 C         3.6568456534        1.7928123540      -14.4246747495
 C         4.1587586515        2.9000288569      -13.5693528925
 C         5.6448329458        3.3064761392      -13.5520921211
 O         6.4536286525        2.8364490912      -14.3199725752
 C         6.1383439120        4.3662394942      -12.5373291616
 C         6.8564131757        5.5767318191      -13.4401953734
 O         6.8586019730        6.6134046035      -12.8179368666
 C         7.3515002742        5.5463559227      -14.9267168897
 C         6.6917897828        6.5834449991      -15.8231998147
 C         6.4075220051        6.1105062004      -17.2801911269
 O         6.4243680931        4.9061734024      -17.5881959744
 C         6.2650388932        7.2360673110      -18.5124945281
 C         7.3454691132        7.1001510534      -19.5684998776
 O         8.4752467340        7.2385110551      -19.1847820911
 C         6.9673615331        6.8793947816      -21.0389146570
 C         8.1610362170        6.6642695850      -22.0749055414
 C         7.9830857206        5.2143484750      -22.6822848221
 O         7.0619159421        4.4953077109      -22.3695596716
 C         9.2113539789        4.4930952071      -23.3444538942
 C         9.3917121199        3.2158592864      -22.5465401136
 O         9.3778055883        2.0969581927      -23.0495053588
 C         9.3593723545        3.1988275896      -20.8570124871
 C         9.1223576079        1.7532303867      -20.3932439409
 C         8.2117441582        1.6207699438      -19.1202612977
 O         8.3183349010        2.4348541117      -18.2394774444
 C         7.5698626680        0.3124513969      -18.9035436307
 C         6.0008588436        0.6741513915      -19.0557844634
 O         5.4660409190        1.4483807821      -18.2938084991
 C         5.3239905883        0.2719434956      -20.2975358227
 C         7.9036319683       -0.8694426827      -19.8722063422
 C         7.7804688797       -0.2070687333      -17.3483240168
 C         8.6707667985        4.2503523111      -24.8192479351
 C        10.6314311829        5.2166582215      -23.3843841873
 C         4.7191702931        7.1671054058      -18.9404406622
 C         6.6183480166        8.6413165568      -18.0137751198
 C         5.0712249912        5.1910280650      -11.6652825399
 C         7.3072687494        3.8456589863      -11.6154002379
 C         5.1243312397       -0.1773551454      -12.4212532822
 C         5.3285506738       -1.8628669969      -14.2571327794
 C         2.9247160486       -6.0308173984      -11.1383794658
 C         0.8282759355       -6.9467424326      -11.9442086029
 C         0.5008973161       -2.6996609378       -6.3209417546
 C         0.0449751128       -4.7544693124       -4.7790898109
 C        -5.9921671920       -4.0554094269       -3.9093768965
 C        -5.9374259274       -6.2268559623       -2.6949838606
 C       -11.2436618986       -8.8472407712       -2.1315017059
 C       -12.4392359385       -7.7351330120       -4.1359507170
 C       -14.9578033722       -2.8526315739        1.8445920109
 C       -16.2239907556       -5.0571970833        1.6126461419
 C       -14.9893088190       -4.0939879560       -5.3239720894
 C       -16.1844647403       -1.8802825439       -5.9242820518
 C       -20.5575232909       -6.4403621608       -5.8959018599
 C       -22.5134588069       -5.2341338547       -4.9704513152
 H       -21.4510103411       -8.5531644930       -2.6127105233
 H       -22.2293860812       -8.0824319386       -4.2493860064
 H       -22.8761065837       -7.3740701311       -2.7380626474
 H       -19.8931749982       -2.3482914677       -5.3632691317
 H       -20.6915268149       -3.4045266952       -6.4642429585
 H       -18.2503863503       -2.9383078800       -7.0697799697
 H       -18.7007115739       -4.5741876445       -6.9983415192
 H       -14.5451922789       -1.7286690797       -2.9899888996
 H       -14.4607684263       -3.4155906514       -2.5767590428
 H       -16.8039623913       -1.9538295217       -1.4169280543
 H       -15.2550771925       -1.7499256391       -0.5526810685
 H       -14.4858655926       -6.7402920948       -0.1329787073
 H       -13.6378958914       -6.4003278193        1.3213050355
 H       -12.2889468963       -7.6634469111       -0.2703494101
 H       -11.4605328026       -6.1987545245       -0.0294451895
 H        -9.8340136366       -7.0497863564       -5.2941170233
 H        -9.7015737412       -8.5848074107       -4.4224798514
 H        -7.4888003234       -7.8371186943       -5.5002771460
 H        -7.4221070084       -7.7572685442       -3.7508724863
 H        -4.6274585240       -4.1986382279       -6.1533738652
 H        -3.7141053222       -5.4886216822       -6.9204860196
 H        -2.0928916077       -5.5951674584       -4.9924787511
 H        -3.1650244323       -4.2596803217       -4.2533306544
 H        -0.5866219223       -3.3191281726       -8.8309092874
 H        -2.0733057238       -4.3646673502       -8.6488558471
 H        -1.1346603724       -4.7832867744      -10.7420084858
 H        -0.7641082676       -6.1897498413       -9.7686344345
 H         3.6314854794       -4.1214417633      -13.2139564067
 H         2.8964945373       -3.1099595485      -11.9321339401
 H         1.3520234799       -2.4175992807      -13.9592015236
 H         2.7819711418       -2.9673354415      -15.0204190584
 H         2.7203929504        1.4305103723      -13.9878485426
 H         3.4946583393        2.1771401957      -15.4004533182
 H         3.8215882729        2.8339913300      -12.5106394884
 H         3.5771808008        3.8604460246      -13.7974613747
 H         7.3094299594        4.6022780658      -15.3726749804
 H         8.3920024056        5.7549180857      -14.7989972996
 H         7.4175984821        7.3830468436      -15.8478527097
 H         5.6568238784        7.0498557835      -15.4490014163
 H         6.1477427796        7.5547503106      -21.2851545905
 H         6.5077904504        5.9212342102      -21.0094458165
 H         9.0919225565        6.7383882514      -21.5071591358
 H         8.1143936384        7.3912347307      -22.9449708747
 H         8.4884804373        3.8114443776      -20.6832218079
 H        10.2786691488        3.5223716473      -20.4171841619
 H        10.0293116279        1.2662581214      -20.1827108626
 H         8.7649704854        1.2076614741      -21.2953812803
 H         4.2219500946        0.3507947784      -20.0390409962
 H         5.3740752092       -0.7147747184      -20.6698976252
 H         5.6413774084        0.8984910575      -21.1030063277
 H         7.2358800100       -1.6525639910      -19.5283170192
 H         8.9451454941       -1.1975564597      -19.5315660274
 H         7.7663653504       -0.5478264259      -20.9114054013
 H         8.7774490859       -0.5132346744      -17.0893834819
 H         7.1460794492       -1.0117064854      -17.1286693443
 H         7.5949289527        0.6198302656      -16.7594355604
 H         7.6967095231        3.6987516899      -24.8642388396
 H         9.2194685374        3.7472113201      -25.5621587537
 H         8.6072420853        5.2322072978      -25.1206054613
 H        11.5010411633        4.5751346216      -23.6455157007
 H        10.9444488339        5.6711860290      -22.4071768604
 H        10.5851717283        5.9898150968      -24.1554760336
 H         4.1155434565        7.2322707799      -18.0652815023
 H         4.5887244813        6.1871690056      -19.4007543781
 H         4.5581331046        8.0447247415      -19.6349997365
 H         7.6763486311        8.9461684895      -17.9362959311
 H         6.1687582681        8.8060284671      -17.0864853481
 H         6.1805509783        9.3942025891      -18.7047516002
 H         5.4141684775        5.7178923617      -10.7816560927
 H         4.1917051412        4.6412791768      -11.2117547649
 H         4.5627216879        5.9037833964      -12.3208730508
 H         6.7592368215        3.0868741907      -11.0022172212
 H         7.5912417783        4.7316008432      -10.9607157465
 H         8.2621465149        3.5843068828      -12.0838231461
 H         6.2375262881       -0.0966618042      -12.4728931345
 H         5.0273304829       -0.9431019490      -11.5657672076
 H         4.7411389206        0.8033903385      -12.0455971894
 H         5.4209464860       -2.5341595823      -13.4494385433
 H         6.2749867287       -1.4026252240      -14.7028995127
 H         4.8034747501       -2.2923573039      -15.1151299200
 H         2.7320363058       -6.6884839016      -10.2851454585
 H         3.5101150665       -5.2271740959      -10.7354570399
 H         3.5654455021       -6.4392107810      -11.8546763004
 H        -0.1745009115       -6.7956686103      -12.4073712675
 H         0.6796932951       -7.5104900125      -10.9600502556
 H         1.4152981802       -7.5110238677      -12.6849617518
 H         0.5724297413       -2.1767038761       -5.3892292084
 H         0.0026379276       -1.9834067722       -6.9681338664
 H         1.4764817911       -2.9482193788       -6.6949950752
 H         0.1457427493       -5.7783243563       -4.9040351345
 H        -0.6821519877       -4.5728890094       -3.9542241723
 H         1.0340612992       -4.3220518296       -4.5909255909
 H        -6.1690185435       -3.4830815083       -4.8107971602
 H        -5.0613042933       -3.7050320754       -3.4698161006
 H        -6.8433535763       -3.9129882279       -3.1620234079
 H        -6.8941556625       -6.1631690746       -2.2175378133
 H        -5.2451458665       -5.7796252842       -2.0292181066
 H        -5.7034228083       -7.3237439113       -2.8155239957
 H       -12.1723750261       -9.1857781233       -1.5687343175
 H       -10.4760044390       -8.7133157454       -1.4144631928
 H       -10.8688733888       -9.4878367802       -2.9174273724
 H       -13.4804848942       -7.9443326775       -3.9449657798
 H       -11.9857691398       -8.6720534224       -4.5887952841
 H       -12.4218324875       -6.8731367481       -4.8159845718
 H       -14.9923532350       -1.8740953902        1.3996464007
 H       -14.0009166976       -3.0974477693        2.1545129487
 H       -15.5021307363       -2.9019420317        2.7488068327
 H       -15.7184269735       -5.2931467696        2.5237483254
 H       -16.3586244144       -5.9434858411        1.0922741686
 H       -17.1569331157       -4.6332382663        1.8764581790
 H       -15.1452627402       -4.9856570295       -4.7582677290
 H       -14.1224002440       -3.4553152182       -4.8762871576
 H       -14.7152465265       -4.2515866525       -6.3926336679
 H       -16.8488338149       -1.1060581652       -5.5363514157
 H       -16.6294019619       -1.8777137970       -6.8739716804
 H       -15.2371708084       -1.4257544409       -5.9958711948
 H       -19.5590598554       -6.7807712145       -5.6574393190
 H       -20.6765389900       -5.9976773056       -6.9473244822
 H       -21.1765475163       -7.2901088542       -5.9698640447
 H       -22.5982430996       -4.7445899013       -5.9545276965
 H       -22.9032030503       -4.4411937950       -4.3136273838
 H       -23.1858939862       -6.1051925876       -4.9761592037
 Na      -18.0852992681       -5.0456444230       -2.7080176967
 Na        6.4424233243        2.4935105392      -16.7161857306
