232

 C        -6.4032360514        1.5385236077      -13.0014364907
 C        -5.8681646564        2.8251261675      -12.5555668384
 O        -4.6657439005        2.9394497638      -12.5524266926
 C        -6.7974134690        4.0945425175      -12.0753437465
 C        -5.7639233821        5.2115999912      -12.1591168314
 O        -4.9789594674        5.5052733208      -11.2830065097
 C        -5.5657053324        5.7649844116      -13.5854041944
 C        -4.8163738435        7.0919780920      -13.5807787530
 C        -3.2333282924        6.8410899124      -13.7971392096
 O        -2.7546905214        5.8187485263      -14.1003318082
 C        -2.2440068898        8.0658977820      -13.2726529803
 C        -1.8417499645        7.6903513642      -11.8147292376
 O        -1.5742373007        6.5350835728      -11.4438691789
 C        -1.4945333444        8.8657427925      -10.8538585121
 C        -2.1168200909        8.6680621595       -9.4078138473
 C        -3.5827389454        8.7308150947       -9.5591738801
 O        -4.2177459499        8.6330125951      -10.6221010782
 C        -4.4093015928        9.0652228273       -8.3059425567
 C        -4.3009294814        7.7487552620       -7.5452288474
 O        -3.2832216788        7.2403194112       -7.0976677286
 C        -5.5525219199        6.9317595710       -7.3022951894
 C        -5.1456568401        5.5376661107       -6.7556071831
 C        -6.2619008518        4.4835975274       -6.9639778770
 O        -7.1609732826        4.5713602865       -7.7885648191
 C        -6.0949447893        3.2216407956       -6.1021572409
 C        -4.7586069793        2.4042065878       -6.4330034887
 O        -4.2043155927        1.8823624083       -5.5283470780
 C        -4.4883320205        1.8833673101       -7.8980213280
 C        -2.9410785348        1.7406091980       -8.1361886770
 C        -2.2882599031        2.9434176946       -8.7646627866
 O        -3.0201872781        3.8786168185       -9.2727802784
 C        -0.8066142163        2.8482893111       -9.0610505825
 C        -0.7698660758        2.2394127506      -10.6337713550
 O        -1.5310442363        2.6423928200      -11.5005256584
 C         0.0398805058        0.9453106105      -10.7634425908
 C        -0.0038609701        0.1428472968      -12.0201243708
 C        -1.2243418415       -0.8995009158      -11.9220004629
 O        -1.9601233429       -0.8178570479      -11.0030280718
 C        -0.9172137044       -2.1812536219      -12.7717709160
 C         0.3021121855       -2.9385644096      -12.1414193985
 O         1.4530619195       -2.5185734763      -12.2367021204
 C         0.0314704095       -4.1988711842      -11.2909962937
 C         0.7197896272       -4.1302497093       -9.8713674227
 C         0.3376834198       -5.1981020670       -8.8435971104
 O        -0.4178176260       -6.1128633276       -9.2101027474
 C         0.7810168441       -5.1936631711       -7.3766249315
 C         1.6052492790       -6.5219284863       -7.3439789003
 O         1.0524670604       -7.5718255118       -7.4258039190
 C         3.1428129276       -6.4239494489       -7.0096023253
 C         3.8677612031       -7.7155408858       -7.0379156164
 C         3.6794367396       -8.4115268924       -5.6978307040
 O         3.6460495992       -7.6937510671       -4.7184825389
 C         3.7519272998      -10.0000089777       -5.6322756925
 C         2.7408708996      -10.5949249936       -6.7462135133
 O         2.8836442845      -10.3712628808       -7.9224516111
 C         1.6433545179      -11.7007368726       -6.3116499986
 C         0.6664288788      -12.3521898813       -7.3655862176
 C        -0.0802558825      -11.2074253461       -7.8892277156
 O        -0.4311796048      -10.1694552597       -7.3584810402
 C        -0.5645269815      -11.4583625527       -9.3532691749
 C        -1.8453559254      -10.5688657931       -9.4808760532
 O        -1.8095785679       -9.5687626922      -10.2186747117
 C        -3.0514161002      -10.9325285982       -8.6343755737
 C        -4.2885497051      -10.0852005812       -9.0627249076
 C        -4.2657704026       -8.6674054959       -8.3917871302
 O        -3.3140763126       -8.3581735272       -7.7072777444
 C        -5.6719074448       -7.9476749353       -8.3131489527
 C        -6.3571570874       -8.0189793859       -9.7411870623
 O        -7.0806424958       -8.9463210092       -9.9892851332
 C        -6.0283330889       -6.9748739550      -10.7975703501
 C        -5.7997931946       -7.6300947094      -12.1923830544
 C        -5.2591285675       -6.6252628972      -13.2492598875
 O        -4.0356846019       -6.5786896800      -13.3407415263
 C        -6.2359372073       -5.7744391761      -14.0850959088
 C        -6.3194811812       -4.3317037666      -13.5971958279
 O        -5.7732637943       -4.1432700580      -12.5329490654
 C        -6.7654665492       -3.2166501196      -14.5726749075
 C        -6.9303886713       -1.8166817759      -13.8873141983
 C        -8.4204516858       -1.5415987414      -13.3015681456
 O        -8.7712400194       -1.7008849041      -12.1629484582
 C        -9.5650075177       -1.0629595444      -14.3516527972
 C        -9.9691682113        0.4213031600      -13.9863638371
 O        -9.0824774540        1.3141565770      -14.1468213272
 C       -11.3516004980        0.8039130234      -13.4379639557
 C        -8.8789335167       -1.0539088929      -15.7471065653
 C       -10.7112488398       -2.1267084466      -14.2823021567
 C        -5.9782925291       -5.9817095000      -15.6424307258
 C        -7.7936338761       -6.3522310811      -13.9610207597
 C        -6.5446361177       -8.6256405302       -7.1960420418
 C        -5.4410043649       -6.3953966052       -7.8764297617
 C         0.4763038332      -10.9872307134      -10.3323549062
 C        -1.0733929288      -12.9793386156       -9.5160363421
 C         5.2065026170      -10.4413476274       -6.0009297089
 C         3.3855288238      -10.4072057105       -4.1818369116
 C         1.5204653167       -3.9047737228       -6.9871362957
 C        -0.4164997086       -5.2640402350       -6.4637426641
 C        -2.2016859335       -3.1292773143      -13.0200436306
 C        -0.3683948186       -1.6089014466      -14.1015770722
 C        -0.2130083371        4.2948912035       -9.4222180180
 C         0.1023471081        1.9619808106       -8.0952812551
 C        -6.0582531834        3.5948393399       -4.5625486979
 C        -7.2430119707        2.2350331736       -6.4062403704
 C        -3.7149931291       10.2783443458       -7.6027003812
 C        -5.8476440286        9.4165739153       -8.7084029478
 C        -0.9530596465        7.9718537640      -14.1618411684
 C        -2.8497916068        9.4807783103      -13.5155786005
 C        -7.9456400330        4.2849197544      -13.0882278831
 C        -7.1565847408        3.6580902437      -10.6821779047
 H        -6.9699598661        1.7044799893      -13.9315307409
 H        -7.1007282896        0.9495991289      -12.3953823535
 H        -5.5653819576        0.8644932265      -13.3685237872
 H        -6.4863107574        5.8361609220      -14.1854234586
 H        -4.9560854013        5.1216308124      -14.2235347405
 H        -4.9149078519        7.6011606629      -12.6653619047
 H        -5.2320086565        7.6538303448      -14.4351185216
 H        -1.8623968421        9.7226054353      -11.3564255401
 H        -0.4001386374        8.9534788861      -10.6655735664
 H        -1.7919095650        9.4628243787       -8.7921724986
 H        -1.6347960155        7.7553726330       -9.0030150446
 H        -6.3485294659        6.9280188056       -8.0729692543
 H        -6.1289443889        7.4007731939       -6.5463997902
 H        -4.6594184925        5.5654815210       -5.7337361000
 H        -4.3412490557        5.1379187117       -7.4409608483
 H        -5.0264118682        2.4644479695       -8.6463808155
 H        -5.0033805026        0.8728887334       -7.9335191866
 H        -2.7894132527        0.9012382312       -8.7801499113
 H        -2.4150026629        1.5716431063       -7.1588103098
 H        -0.2852093173        0.3765166402       -9.8329959570
 H         1.0895081547        1.1057330863      -10.5370824659
 H         0.8245536917       -0.5957218501      -11.8685467849
 H        -0.0718538540        0.6590472802      -13.0183430721
 H         0.5103024417       -5.0135788289      -11.8785409701
 H        -1.0138870097       -4.4310466572      -11.2710238662
 H         0.6602228541       -3.1165307077       -9.5500861812
 H         1.9186709874       -4.1638993095      -10.1428172071
 H         3.2262088773       -5.8377663636       -6.1475875224
 H         3.5202430564       -5.6999117777       -7.6820881066
 H         4.9007292232       -7.3909136679       -7.2054993407
 H         3.5495673379       -8.4377824755       -7.7879472248
 H         1.0033211813      -11.2529656608       -5.5061583657
 H         2.3052946544      -12.4768042756       -5.7059432812
 H         0.1202972448      -13.1926316175       -6.8931535271
 H         1.2849272242      -12.7744734102       -8.2836570397
 H        -2.9227979635      -10.6812535410       -7.5550570068
 H        -3.2310735353      -12.0197142621       -8.7990771045
 H        -5.1355955633      -10.6420437433       -8.6630615860
 H        -4.3561233516      -10.0409603722      -10.1661531174
 H        -5.1428872790       -6.3337227308      -10.5951130889
 H        -6.8659603742       -6.1786677168      -10.8326159045
 H        -6.7707171753       -8.1028055872      -12.4269458606
 H        -5.0909707021       -8.4279318931      -12.0734618505
 H        -7.6386857957       -3.4797645783      -15.0978055059
 H        -5.9758025465       -3.2326107629      -15.2576083561
 H        -6.5101508119       -1.0830495339      -14.5931576262
 H        -6.2681197253       -1.8424448050      -13.0464020123
 H       -11.5944756865        0.0925889497      -12.6344189786
 H       -12.0160527557        0.8118074978      -14.3578634462
 H       -11.3908961338        1.8188107185      -12.9987965417
 H        -8.0943851569       -0.1988166129      -15.8959711051
 H        -9.6702422618       -0.7834912959      -16.4372136153
 H        -8.5083958189       -2.0609795368      -16.0099561276
 H       -11.4847843533       -2.1956476799      -15.1261578930
 H       -11.2956286173       -1.8892658611      -13.4109966362
 H       -10.2700325694       -3.1223369738      -14.0732437061
 H        -6.5080224610       -5.1124052474      -16.2360799932
 H        -6.3381558029       -6.9533903332      -15.9610547868
 H        -4.9046120681       -6.0953904016      -15.9131682453
 H        -8.2004931028       -6.1486359476      -12.9752625088
 H        -7.7659322659       -7.4567104175      -14.1116703613
 H        -8.4978344843       -5.9182288309      -14.6365866855
 H        -6.1814564960       -9.5899756661       -6.9291593800
 H        -7.5475042529       -8.7199989368       -7.6349740987
 H        -6.6916911581       -8.0326692575       -6.3302827722
 H        -4.6310075311       -6.0338150860       -8.4364597152
 H        -5.1718496892       -6.2996230521       -6.8310217216
 H        -6.3935711867       -5.8779688058       -8.1149607775
 H         1.4917726169      -11.2696349813      -10.1354452969
 H         0.2014661572       -9.9743006414      -10.4352958278
 H         0.1600554919      -11.4504745918      -11.2837884316
 H        -1.5728900572      -13.0016166666      -10.4678788089
 H        -1.7917954896      -13.1692506946       -8.7731350778
 H        -0.2802010943      -13.6867092479       -9.5157096932
 H         5.3714785873      -10.2619442719       -7.0736800840
 H         5.3472353603      -11.5025510508       -5.9130073452
 H         5.9983448000       -9.9621590696       -5.4959120932
 H         4.0992374975       -9.8270775519       -3.5434853650
 H         3.5045548456      -11.4619682610       -3.8582407316
 H         2.4006024114       -9.9688364887       -3.9254675101
 H         1.9973304629       -4.0418711361       -6.0086337628
 H         0.8400530818       -3.0427071306       -6.9272599015
 H         2.2176515299       -3.5666763818       -7.6936947006
 H        -1.1107174470       -6.0231145097       -6.7563276876
 H        -0.7994966590       -4.2300755582       -6.1792244636
 H        -0.1082270227       -5.6168414590       -5.5247235265
 H        -2.9235816919       -2.5847561572      -13.5654903033
 H        -2.6794002965       -3.4057790127      -12.1013084111
 H        -1.9981041602       -3.9709532639      -13.6426796070
 H         0.5613578259       -1.1539688997      -13.9581688191
 H        -1.0343544514       -0.9309850531      -14.6297890395
 H        -0.2055616920       -2.3848203298      -14.8299832858
 H        -0.2060082716        4.7014102413       -8.4510155300
 H        -0.8300409486        4.8897361002      -10.0921742134
 H         0.8455950683        4.2335669788       -9.6791845603
 H         1.0795630368        1.9953721281       -8.6083366680
 H        -0.2934313804        0.9704418964       -8.0132810704
 H         0.1015313027        2.3965157147       -7.0544592678
 H        -5.0488770815        4.0141041603       -4.4762333524
 H        -6.2477731103        2.6957155344       -3.9763418217
 H        -6.8650245011        4.3303330444       -4.1883032012
 H        -7.2643960389        1.9604967509       -7.4551954796
 H        -8.1926873444        2.5309999043       -6.0562310166
 H        -7.0389643051        1.3107298730       -5.8670975273
 H        -2.8229452610       10.1091409999       -7.0788836207
 H        -4.3702069751       10.5813290592       -6.7843588714
 H        -3.4763792160       11.1907112062       -8.1671669647
 H        -6.3497655699        8.6719915222       -9.2947559636
 H        -5.8704906165       10.2457311844       -9.3373874693
 H        -6.4541560917        9.6166428430       -7.8273034164
 H        -0.0909747355        8.5407746578      -13.6929111635
 H        -1.2218129620        8.4231775603      -15.1335468013
 H        -0.7260839565        6.8433883589      -14.2448365916
 H        -3.5010411636        9.7426917526      -12.7254267789
 H        -3.3291205838        9.5852935860      -14.5632450660
 H        -2.0401760739       10.1820199653      -13.5161461585
 H        -7.5686145078        4.3282164237      -14.1216259253
 H        -8.5895816544        5.1514589067      -12.9117764979
 H        -8.6787469429        3.4873028108      -13.0106666551
 H        -7.5401152059        4.4114071378      -10.0330591507
 H        -6.2790330649        3.1211532474      -10.1464265337
 H        -8.0497821827        3.0343835188      -10.6028603395
 Na       -3.0279258774        4.6637913700      -11.7367719546
 Na       -1.1389833781       -8.1267465001       -8.3873100111
