232

 C        -6.4584646247        1.5655588129      -13.0219205313
 C        -5.7567678403        2.7867822189      -12.5379334005
 O        -4.4813896283        2.9292125390      -12.5671582090
 C        -6.6307695612        3.9499398475      -11.9973033486
 C        -5.6765511258        5.2929833155      -12.1087630209
 O        -4.9872211604        5.5675609324      -11.2002480751
 C        -5.5353863966        5.8609155650      -13.5298980409
 C        -4.7033207054        7.1749392528      -13.6515814197
 C        -3.2819029117        6.8740036287      -13.6473453384
 O        -2.8409553819        5.7989131716      -13.9591095806
 C        -2.3601354392        8.0283959818      -13.3489402399
 C        -1.7994431323        7.6748367131      -11.9269627513
 O        -1.4374926148        6.5273035064      -11.5918658144
 C        -1.3167868718        8.8222894730      -10.9415545421
 C        -2.0627323818        8.9172159881       -9.5668152591
 C        -3.6020307065        8.8964617438       -9.6778561228
 O        -4.1290302178        8.5956212035      -10.7314779007
 C        -4.4691370641        9.1404692807       -8.3226011667
 C        -4.2978990804        7.8171353399       -7.3886185969
 O        -3.1710341912        7.5105575909       -7.0970470147
 C        -5.5703122466        6.9765484026       -7.0377153297
 C        -5.0924684804        5.4906161905       -6.7890652263
 C        -6.1801363824        4.4645709886       -6.9351132230
 O        -7.0666512744        4.6757659273       -7.7157560392
 C        -6.1380039422        3.1164702032       -6.0890280492
 C        -4.8801058048        2.2846993153       -6.3809374676
 O        -4.1463176918        1.8435617912       -5.4550412271
 C        -4.4384892569        2.0723396088       -7.9096932980
 C        -2.9711691176        1.8415091195       -8.1058701640
 C        -2.3085016802        2.9345263295       -8.9753784227
 O        -2.9601297880        3.8618586584       -9.4337612733
 C        -0.7473706384        2.8980436665       -9.3465649271
 C        -0.7863689095        2.1608381104      -10.7755688737
 O        -1.3679390827        2.6430173643      -11.6939823782
 C         0.0545831117        0.8840946091      -10.7384417910
 C        -0.0086091286        0.1633720902      -12.0313267546
 C        -1.1631724285       -0.9587716472      -11.8716158527
 O        -2.0483002075       -0.8327347201      -11.0721209872
 C        -0.9591326341       -2.1614818078      -12.8710564809
 C         0.2508977682       -2.9686626365      -12.1006464923
 O         1.3492222738       -2.4448798926      -12.1578580038
 C         0.0343571410       -4.2723394509      -11.2753884443
 C         0.7098331380       -4.1869265890       -9.9114432144
 C         0.1707863034       -5.2317780150       -8.9183507232
 O        -0.4596233482       -6.1893897034       -9.3387818349
 C         0.7135335481       -5.1665447965       -7.3768142592
 C         1.5803199027       -6.5314650695       -7.2048748609
 O         0.9779953614       -7.5599310352       -7.4149990243
 C         3.1227372767       -6.4740445361       -7.0181331890
 C         3.8845723804       -7.7539725011       -7.0731697159
 C         3.7599429658       -8.3931068091       -5.7113602358
 O         3.5325187258       -7.8519435266       -4.6619001611
 C         3.7629763760       -9.9845797513       -5.6935988318
 C         2.8636072866      -10.7210823409       -6.7149956603
 O         2.8299343881      -10.3729636336       -7.9116718019
 C         1.8068542771      -11.7287718995       -6.1778824121
 C         0.8583625722      -12.2653864160       -7.3203456873
 C        -0.0816478455      -11.2219581347       -7.9119165396
 O        -0.2630882814      -10.2028253538       -7.2751889106
 C        -0.7768706553      -11.4336463932       -9.3749166474
 C        -2.0112663257      -10.5633040654       -9.4694974236
 O        -2.0072997385       -9.5637523966      -10.1733296741
 C        -3.2260633789      -10.9028153372       -8.5689502493
 C        -4.4148540409       -9.9939775873       -9.0570501922
 C        -4.4561821302       -8.6974454144       -8.3125632704
 O        -3.4019051628       -8.0881264784       -7.9459123072
 C        -5.7947260177       -7.9899596426       -8.3023419513
 C        -6.3124831859       -8.0450706981       -9.7630473647
 O        -7.0412631531       -8.9989695894      -10.0139631240
 C        -5.6403838015       -7.1296447768      -10.7193107523
 C        -5.7570029846       -7.7281782219      -12.1277090237
 C        -5.2635996993       -6.8021982837      -13.2215857401
 O        -4.0826328447       -6.5887813918      -13.4299590737
 C        -6.2917132959       -5.9525208639      -14.0593384572
 C        -6.0820801139       -4.3876575342      -13.5601032310
 O        -5.7023476218       -4.0355018565      -12.4904768342
 C        -6.7779127204       -3.2646415106      -14.4766686273
 C        -7.0073656251       -1.8791181139      -13.7578743344
 C        -8.4179738541       -1.6102930778      -13.3369664209
 O        -8.6624879959       -1.7653543349      -12.1528970880
 C        -9.5340741943       -1.1266369573      -14.3165391666
 C        -9.8909887450        0.3691549963      -13.9593030047
 O        -9.1179292403        1.2748318936      -14.1884766768
 C       -11.2454379115        0.6728321722      -13.3942511250
 C        -8.9005517910       -0.9021713936      -15.7464569339
 C       -10.6212913347       -2.1746561595      -14.2773720671
 C        -6.0770210342       -5.9943765965      -15.5856939957
 C        -7.7900026805       -6.3683977220      -13.8159414717
 C        -6.7826881717       -8.7203383867       -7.4274910228
 C        -5.4524880272       -6.6083218224       -7.6015919562
 C         0.4218331607      -11.0233991174      -10.4351846999
 C        -1.0042890855      -12.9256903440       -9.6764764805
 C         5.2437719592      -10.3567171705       -5.9760113775
 C         3.2725602073      -10.3114209593       -4.2246577097
 C         1.6516635060       -3.9739990466       -7.0538436430
 C        -0.5280013407       -5.3053752531       -6.3521453441
 C        -2.1622173556       -3.0513534853      -12.9469569627
 C        -0.4543355262       -1.7311889939      -14.2865917837
 C        -0.2099909479        4.3671031892       -9.3489423611
 C         0.0186286527        2.1819442104       -8.2514901437
 C        -6.0790430201        3.5334497217       -4.6220682894
 C        -7.3451892898        2.1869784549       -6.3544989748
 C        -3.7950637066       10.3160968491       -7.5531794101
 C        -5.8264093347        9.5537877212       -8.7780698078
 C        -1.0110352022        7.9358728409      -14.1556843382
 C        -3.0764003396        9.3861447679      -13.5518239330
 C        -7.7953756112        4.1860691943      -13.0476581767
 C        -7.2407010499        3.6057669872      -10.5969275511
 H        -6.9519251100        1.7143584088      -13.9782486441
 H        -7.2626892723        1.1603933844      -12.3914914161
 H        -5.7427877998        0.7628404425      -13.2858592281
 H        -6.5234929967        6.0424288042      -13.9185615145
 H        -5.1119614171        5.1395324009      -14.2974335040
 H        -4.8589635188        7.8773388787      -12.8187001132
 H        -4.9395798483        7.6253064327      -14.6417986078
 H        -1.4441502470        9.7317932456      -11.5136949069
 H        -0.3001977992        8.7054117411      -10.6782512876
 H        -1.6561327984        9.6919471987       -8.9965919139
 H        -1.7097144477        8.0386698334       -9.0914769320
 H        -6.2960954815        7.0511830048       -7.9815111794
 H        -6.2869334409        7.3272805090       -6.3017515540
 H        -4.7360620458        5.3774600770       -5.7378375257
 H        -4.2533833603        5.2732402594       -7.4648407993
 H        -4.8673113364        2.8881169594       -8.5230883939
 H        -4.9055966809        1.1813053615       -8.3386235421
 H        -2.9210998150        0.8181683250       -8.6088644321
 H        -2.4766437956        1.7257759652       -7.1747487302
 H        -0.2403037502        0.2778849636       -9.8661154277
 H         1.1564739795        1.2179863759      -10.4207212407
 H         0.9063199721       -0.3898284636      -12.2136984091
 H        -0.4630824307        0.6440738377      -12.8623111922
 H         0.3957237662       -5.0682445192      -11.8563817822
 H        -1.0770828492       -4.4672938576      -11.1522675997
 H         0.4645455918       -3.1143108100       -9.6159817236
 H         1.8423343613       -4.1180701712       -9.9604087953
 H         3.2304474828       -5.9407020244       -6.0732185953
 H         3.4222390948       -5.6286628625       -7.6601070538
 H         4.9093195586       -7.4655780705       -7.3710259243
 H         3.4952920037       -8.5790345357       -7.6810854029
 H         1.2560342974      -11.3501517318       -5.2712813742
 H         2.4407855796      -12.5695864258       -5.7879944121
 H         0.2387956837      -13.0193799792       -6.8437609589
 H         1.6104509615      -12.8585301436       -7.9902488513
 H        -3.0622796063      -10.5586046902       -7.5223213106
 H        -3.4172290919      -11.9337930179       -8.5967889433
 H        -5.4141091647      -10.6182995822       -8.9035791713
 H        -4.2696256289       -9.7013200964      -10.1377842561
 H        -4.5141424969       -7.0034804204      -10.4797652912
 H        -5.9947910525       -6.0728340605      -10.5853574038
 H        -6.7596292556       -7.9763444978      -12.2088699278
 H        -5.2114633229       -8.6596285852      -12.1311099135
 H        -7.6928431836       -3.6460498837      -14.8051713014
 H        -6.1881335537       -3.1173836833      -15.3393820389
 H        -6.6056748739       -1.1106103606      -14.5312095264
 H        -6.3418157032       -1.8412831631      -12.9180001676
 H       -11.6014107608       -0.2140231055      -12.9667800477
 H       -11.8706930660        1.1564400674      -14.1985945993
 H       -11.1675080254        1.3543957377      -12.5697287739
 H        -8.2928362768       -0.0140301657      -15.8019427917
 H        -9.7964178737       -0.6562381158      -16.3508561012
 H        -8.4347998679       -1.7975980364      -16.1988729518
 H       -11.1816671149       -2.4220076474      -15.1758757515
 H       -11.3659312921       -1.8985730470      -13.5597982129
 H       -10.1781706807       -3.0309437280      -13.8706634256
 H        -6.8331982259       -5.5458885457      -16.1678137488
 H        -5.8369544327       -6.9922193341      -15.9049686248
 H        -5.0735969003       -5.5143815879      -15.7520852866
 H        -7.9084895122       -6.1177518339      -12.7006582100
 H        -7.9805418658       -7.4592685855      -13.9372895285
 H        -8.5399043021       -5.8585058650      -14.3480330331
 H        -6.5881583507       -9.7743456302       -7.5989835794
 H        -7.7636679071       -8.4573718719       -7.6742514468
 H        -6.7349025822       -8.5249477116       -6.3673296169
 H        -4.7618282871       -5.9645785306       -8.1738196714
 H        -4.8913689788       -6.8005836661       -6.6768007036
 H        -6.4486442238       -6.1942938103       -7.4278340888
 H         1.3649724541      -11.5285919733      -10.0966661541
 H         0.3819800124       -9.9902242094      -10.6356770462
 H         0.1585713537      -11.5348789444      -11.3604432927
 H        -1.7567847638      -12.9989291774      -10.4260639968
 H        -1.3025750528      -13.5588494147       -8.8243538504
 H        -0.0758253063      -13.1725846165      -10.1672198812
 H         5.6949784192       -9.9954245379       -6.8449023180
 H         5.3814081859      -11.4093657750       -6.0635740094
 H         5.8097600812      -10.0117056334       -5.1393757703
 H         4.0071463514      -10.1419356424       -3.3819362486
 H         2.9674524679      -11.3603041340       -4.0572849660
 H         2.4242083971       -9.6329565166       -4.0452483704
 H         2.0413063703       -4.0905856725       -6.0354344092
 H         1.2453977491       -2.9747824176       -7.1818527243
 H         2.4585863110       -3.9464359873       -7.7717441062
 H        -1.0774625063       -6.2455566605       -6.5583653707
 H        -1.0911703582       -4.3461253686       -6.1915527526
 H        -0.1782824986       -5.5195914708       -5.3166745826
 H        -2.9836627723       -2.5994789274      -13.4711317313
 H        -2.5693493481       -3.2354696494      -11.9020455728
 H        -1.9570131814       -3.9160474507      -13.4661980932
 H         0.5261687207       -1.2858070961      -14.2028946892
 H        -1.0589202132       -0.9442386811      -14.8814363278
 H        -0.4597137033       -2.5958893368      -14.8949726038
 H         0.1213723834        4.4515688106       -8.3003964122
 H        -0.9796057367        5.0683779965       -9.5715790244
 H         0.6808119620        4.4739227921       -9.9409540133
 H         1.0152178848        2.5975091207       -8.2361800729
 H        -0.0639885949        1.1005119527       -8.2030187743
 H        -0.5365523519        2.5672298953       -7.3438817595
 H        -5.2077043600        4.2218668606       -4.5925157807
 H        -5.9040935242        2.6229418600       -3.9680047353
 H        -6.9940171840        4.0188221345       -4.2567453049
 H        -7.5345368721        2.0318684516       -7.4113873501
 H        -8.2487318398        2.5899378473       -5.8668408073
 H        -7.2390451878        1.2609968344       -5.8958479629
 H        -2.8628951451       10.1186819677       -7.0888574902
 H        -4.4136900644       10.6866510771       -6.7604336624
 H        -3.5401128466       11.2118863635       -8.1489087398
 H        -6.2333962076        8.8148896662       -9.3653123657
 H        -5.8499717352       10.4452940925       -9.4054613162
 H        -6.4691163696        9.6938493789       -7.9427325377
 H        -0.2149095585        8.2313940081      -13.5366839524
 H        -1.0650758016        8.6531715275      -15.0218766985
 H        -0.9018942294        6.8868728755      -14.4552476858
 H        -3.6106791281        9.7794930743      -12.6786295165
 H        -3.6994143775        9.3245331902      -14.4271379830
 H        -2.2918457979       10.0697330053      -13.8229804235
 H        -7.4535382617        4.2321648856      -14.0953189079
 H        -8.3647018750        5.1328146766      -12.8197025938
 H        -8.6325673209        3.4685594770      -12.9726689022
 H        -7.5809401635        4.4513340038       -9.9192516580
 H        -6.6479821772        2.8900753042      -10.0123753624
 H        -8.2834881986        3.1656422541      -10.6480630822
 Na       -2.9915931752        4.8527860909      -11.6961089597
 Na       -1.2147954143       -8.0844740646       -8.2968848468
