232

 C        -5.7900731080        1.3908993140      -12.7444506370
 C        -5.3811955266        2.8117170435      -12.4350184343
 O        -4.1177968338        2.9597875985      -12.2951292928
 C        -6.4600726974        3.8904667101      -12.1600593682
 C        -5.7800683696        5.3515119552      -12.2472923858
 O        -5.3465774819        5.9416006359      -11.3022197432
 C        -5.8405962710        6.1747378731      -13.5654593303
 C        -4.9687297052        7.5005426048      -13.3909725562
 C        -3.4687538617        7.1067584902      -13.3689418389
 O        -3.1327697776        5.9408352863      -13.5055752683
 C        -2.3575471718        8.1591221992      -13.3622443625
 C        -1.6416928932        8.0509100417      -11.8707202040
 O        -1.5515921286        6.8922584513      -11.4075465242
 C        -1.2704578540        9.3167194341      -11.0182732523
 C        -1.9760083130        9.2701658879       -9.6852958749
 C        -3.4192456758        8.9869314650       -9.6920772831
 O        -3.9383253222        8.6520536166      -10.7217369985
 C        -4.2635868754        9.2653657449       -8.4696438443
 C        -3.9717152087        7.8937166055       -7.5853823046
 O        -2.9049357823        7.7573734912       -7.0328391507
 C        -5.1708494712        7.0212722591       -7.3702988778
 C        -4.8100844201        5.6900898164       -6.5774117401
 C        -6.0554759683        4.7564701620       -6.7420366568
 O        -6.9574084005        5.1313045311       -7.4221487799
 C        -6.0793164551        3.3574878250       -6.0015432318
 C        -4.7920923716        2.4953095094       -6.3363753990
 O        -4.1876657797        1.8864740072       -5.4511530874
 C        -4.4504674915        2.4062205596       -7.8343294861
 C        -2.9454120010        2.2923479426       -8.0941002186
 C        -2.4181003513        3.0805192796       -9.2228010689
 O        -3.1857135800        3.7959762475       -9.7846776248
 C        -0.8506931113        3.0591518161       -9.5778891142
 C        -0.5674146343        2.4534214452      -11.0536800886
 O        -0.7571028098        3.0627902449      -12.0539170256
 C         0.0693824358        0.9956799946      -11.0498426063
 C        -0.2028766304        0.3839400584      -12.3986666401
 C        -1.2345061244       -0.8322771689      -12.1536348075
 O        -2.0412472735       -0.7981168658      -11.2425139285
 C        -1.1543320913       -2.3087520322      -12.9105239758
 C         0.0227803063       -3.0695447510      -12.1337759717
 O         1.1432520819       -2.6084910493      -12.1252236872
 C        -0.2759696361       -4.3274281888      -11.3557329277
 C         0.3634048538       -4.2649547001       -9.9651350256
 C         0.0629098086       -5.3764300652       -8.9759617492
 O        -0.6956652297       -6.2825425940       -9.2313203795
 C         0.5913105041       -5.2323730047       -7.5586499944
 C         1.5456480951       -6.5163910214       -7.2608214661
 O         1.0221035364       -7.6264998952       -7.2539067911
 C         3.1142047729       -6.4208052160       -7.3015851933
 C         3.7642623154       -7.8113616444       -6.9796797796
 C         3.3791052813       -8.5847585801       -5.6182813070
 O         3.0878417524       -7.9534184106       -4.6398056470
 C         3.6946124173      -10.1166608364       -5.5931585509
 C         2.8948671454      -10.9407620887       -6.6114906042
 O         3.1269163685      -10.5934928241       -7.7895142050
 C         1.8285172559      -11.9012866990       -6.1990247109
 C         1.0545997390      -12.1559603094       -7.5218352014
 C        -0.0220579450      -11.2592114036       -8.0085258536
 O        -0.1780367239      -10.2469734237       -7.3293516993
 C        -0.7599033172      -11.3778384200       -9.3909972874
 C        -2.1126364503      -10.4726464552       -9.3884375113
 O        -2.2403635730       -9.3683594575       -9.8506275037
 C        -3.1726735109      -11.1077795316       -8.3940993046
 C        -4.5211930139      -10.3680285809       -8.2028936845
 C        -4.5650761370       -8.8851714186       -8.0364014926
 O        -3.5935983692       -8.1551906277       -7.7198236170
 C        -5.9829083644       -8.3134187739       -8.2389592282
 C        -6.4062942970       -8.1041526083       -9.7979176139
 O        -7.5278531465       -8.3243964220      -10.1801473379
 C        -5.4041469166       -7.3018752064      -10.7191714767
 C        -5.3063798265       -7.8563598948      -12.1986705898
 C        -5.0629648204       -6.8100696601      -13.2129744877
 O        -3.9816434204       -6.6932021275      -13.7178676281
 C        -6.3608270532       -5.9657719940      -13.8352611095
 C        -6.1011706411       -4.5055409488      -13.4231015317
 O        -5.3937876305       -4.1292118277      -12.4926997237
 C        -6.7762934410       -3.3978171209      -14.3094473301
 C        -6.8663899553       -2.0330855309      -13.6192425664
 C        -8.2998920281       -1.7059868578      -13.2696526293
 O        -8.7541668443       -1.6937271092      -12.1287382607
 C        -9.2657126533       -1.2690669154      -14.4082301923
 C        -9.8617940228        0.0878511823      -13.8269168067
 O        -9.2032367853        1.0497620224      -14.0441007535
 C       -10.9688531526        0.1685202434      -12.8781921322
 C        -8.7069034920       -1.0728216696      -15.8016384423
 C       -10.5105259065       -2.2806465114      -14.4707601588
 C        -6.4321477598       -6.1463063427      -15.3286825186
 C        -7.6019233365       -6.4771781281      -13.2233116493
 C        -7.1186640590       -9.2884341892       -7.5992548776
 C        -6.1502637656       -6.8966319944       -7.7829706111
 C         0.2722537742      -10.9761776068      -10.5143652815
 C        -1.0410336533      -12.8472252206       -9.7675563912
 C         5.1492892011      -10.4011373431       -6.0212819119
 C         3.4000096784      -10.5121926638       -4.1407310927
 C         1.4084270624       -3.9488074706       -7.2144167117
 C        -0.6384704166       -5.3531570689       -6.5667385264
 C        -2.4849953206       -3.0931527144      -12.9635945418
 C        -0.5371119674       -2.2257910539      -14.3140624395
 C        -0.4037203986        4.5516914995       -9.6142702508
 C         0.0343368222        2.4821766315       -8.4339142562
 C        -6.0811242605        3.4787122020       -4.4544898947
 C        -7.3298771114        2.4810105853       -6.4784016503
 C        -3.9517606809       10.5895218492       -7.8163779007
 C        -5.7948843405        9.2040813387       -8.8508536883
 C        -1.3368610261        7.6369110949      -14.4422548804
 C        -2.9140509942        9.5689938294      -13.6857440720
 C        -7.8580643832        3.6622835995      -12.7851843795
 C        -6.6798495814        3.6304864691      -10.6702579023
 H        -6.1781684433        1.2362171111      -13.7758826279
 H        -6.7307794169        1.1137490526      -12.2160413015
 H        -4.9117200037        0.7741867016      -12.7260274380
 H        -6.8270174418        6.4669449404      -13.8371497779
 H        -5.4629675719        5.5527641619      -14.4124107409
 H        -5.2614192988        7.9211792521      -12.4155998849
 H        -5.1207836759        8.2609202265      -14.1355788689
 H        -1.5665518036       10.3025024812      -11.4611255595
 H        -0.2080449763        9.2690625475      -10.9412844133
 H        -1.7630506500       10.2190836312       -9.2352406291
 H        -1.4758559785        8.5995137937       -9.0056429039
 H        -5.6959617389        6.8059812898       -8.3546620007
 H        -5.9989360687        7.5645025764       -6.9156972062
 H        -4.8330000912        5.9829692935       -5.5007071562
 H        -3.9068507942        5.1636992591       -6.8949370769
 H        -4.9194926490        3.2209686320       -8.4370537609
 H        -4.9999306713        1.5316736761       -8.2262459487
 H        -2.6247572752        1.2146223998       -8.1903723618
 H        -2.4017888959        2.4786468707       -7.2142386085
 H        -0.4526712179        0.5341951398      -10.2024150173
 H         1.2270330651        1.0700932240      -10.7885940121
 H         0.6302140643       -0.2297203049      -12.8556195959
 H        -0.5621572400        1.2143049016      -13.0794410968
 H         0.1609473242       -5.1801126180      -11.7569388824
 H        -1.3828660535       -4.5809552437      -11.2379689503
 H        -0.1266523989       -3.2480956564       -9.5806981182
 H         1.4282302866       -4.1092525651      -10.0830617284
 H         3.2570166335       -5.6893846799       -6.5284859913
 H         3.3285687965       -5.8630542500       -8.2034838125
 H         4.8557272502       -7.6338147755       -6.8834882323
 H         3.6108979076       -8.5016182757       -7.8069358609
 H         1.0748344498      -11.5227110234       -5.3715395841
 H         2.4108027458      -12.7997553986       -5.8768650870
 H         0.7854759037      -13.2455534762       -7.4905039673
 H         1.9164381048      -12.2923419423       -8.2531039942
 H        -2.5632755040      -11.1357065552       -7.4160164952
 H        -3.4623665606      -12.1298504029       -8.5840506027
 H        -4.8596178002      -10.8073715916       -7.1964448107
 H        -5.1950086448      -10.6944553308       -9.0366931860
 H        -4.2966464494       -7.3361594452      -10.3505395751
 H        -5.6625917430       -6.2028978430      -10.7843237146
 H        -6.1097433440       -8.4999645356      -12.4117269774
 H        -4.3995423743       -8.4861842127      -12.2552745376
 H        -7.7204393036       -3.7396878026      -14.5634503233
 H        -6.1704070317       -3.3649294087      -15.1678548290
 H        -6.5255664171       -1.2467049422      -14.3644623630
 H        -6.1608531516       -2.0054381336      -12.8166943290
 H       -11.5764307696       -0.7529148430      -12.8414280156
 H       -11.4008648249        1.1856864515      -12.9122912184
 H       -10.4148313177        0.0637471319      -11.9131332371
 H        -8.1501356872       -0.1750059624      -15.7218185552
 H        -9.6033617370       -0.9803129429      -16.5231198968
 H        -8.1038984557       -1.8942380679      -16.2897289955
 H       -11.5226101604       -1.8892308271      -14.5018693729
 H       -10.4940319641       -3.1196636013      -13.6661556351
 H       -10.3494989730       -2.8055941004      -15.4373017531
 H        -6.9632429317       -5.3641237977      -15.8419985556
 H        -7.1033187570       -7.0634287763      -15.5159791899
 H        -5.4213972754       -6.1825833097      -15.8757910434
 H        -7.7334655669       -6.3932285412      -12.1442386792
 H        -7.7510987697       -7.5110350518      -13.4457298649
 H        -8.3910106041       -6.0155475715      -13.7782328515
 H        -8.0897106781       -9.1877812666       -8.1013603135
 H        -7.1929880172       -9.0040672888       -6.5916499207
 H        -6.9371646145      -10.3647378252       -7.5372828086
 H        -5.1966807170       -6.3808466700       -7.8833158612
 H        -6.3022479078       -6.8792149982       -6.7265102630
 H        -6.9003345777       -6.4426546869       -8.3583313672
 H         1.0297590906      -11.7521440997      -10.6958566797
 H         0.6733605771      -10.0309388945      -10.1705186320
 H        -0.2673192518      -10.6846366914      -11.3786490464
 H        -1.1262358199      -12.9777898772      -10.7913383711
 H        -1.9130868828      -13.2951718868       -9.2960208550
 H        -0.1116234546      -13.2941124948       -9.5010999130
 H         5.3121745500      -10.4296321898       -7.0669420321
 H         5.4913444095      -11.4127967230       -5.7104877302
 H         5.8158184298       -9.6468837137       -5.5605270883
 H         3.2514843992       -9.6148556943       -3.5170146654
 H         4.1965332887      -11.0564397266       -3.6118551739
 H         2.5071746603      -11.1111528212       -3.9191978267
 H         1.7036029881       -3.9934483914       -6.1786228716
 H         0.7731453501       -3.0799854817       -7.2435186887
 H         2.2900221114       -3.7593571615       -7.8492214807
 H        -1.0247197526       -6.3814712346       -6.5821986900
 H        -1.3730724161       -4.6016910602       -6.7308262947
 H        -0.1585231857       -5.2379167358       -5.5603557614
 H        -3.1511089798       -2.6181608367      -13.6335942518
 H        -2.9994403133       -3.0862557072      -12.0058743783
 H        -2.2831292216       -4.0896121888      -13.2623936123
 H         0.3156141409       -1.5863602792      -14.2675570013
 H        -1.0922279782       -1.7110930920      -15.0538791764
 H        -0.2723511736       -3.1877794587      -14.5190599916
 H        -0.4717292804        5.0380513659       -8.6154643820
 H        -1.1525209910        4.8905066014      -10.2748825095
 H         0.5846032294        4.6218963816      -10.0063519640
 H         1.0887061936        2.3979229771       -8.6992047680
 H        -0.4185411835        1.4587584876       -8.1933451539
 H         0.0710987376        3.1022660354       -7.5201192195
 H        -5.1534151617        3.8783751041       -3.9714528135
 H        -5.9376130645        2.4239036760       -4.1023665288
 H        -6.9126462597        4.0640406394       -4.1214054872
 H        -7.3016665606        2.2290132869       -7.5351185542
 H        -8.2515504524        3.1117507296       -6.4257275084
 H        -7.5505190351        1.6310837752       -5.8954658301
 H        -2.9216445683       10.6560058002       -7.4435813379
 H        -4.5670795463       10.9131430296       -7.0043174883
 H        -3.9801830611       11.4431138553       -8.4939952344
 H        -5.9883537921        8.3323207113       -9.4269511945
 H        -6.0732271758       10.0827015730       -9.4908396798
 H        -6.4746021064        9.2706493739       -8.0328120287
 H        -0.7022070777        8.4420106296      -14.9023697353
 H        -1.9341090328        7.1474280215      -15.3193059077
 H        -0.7492488462        6.8647310681      -13.8977026883
 H        -3.3917291357        9.8795067274      -12.7112546420
 H        -3.6706921519        9.5626719075      -14.3998038247
 H        -2.0733830105       10.2359933961      -13.9119784727
 H        -7.9210590177        3.8376219602      -13.8369899817
 H        -8.5245401300        4.4479933091      -12.4262001709
 H        -8.2963922318        2.6887913247      -12.6443615218
 H        -7.7979771543        3.7279395183      -10.3528655910
 H        -6.0872178125        4.2077233495       -9.9936856114
 H        -6.3457746071        2.5814178848      -10.4006324185
 Na       -2.4748158616        4.4243216286      -12.1323396461
 Na       -1.1399817308       -8.2349036232       -8.1038104940
