232

 C        -5.7718904741        1.4094544239      -12.7441798025
 C        -5.2108234087        2.7989897477      -12.4945486409
 O        -4.0539993141        2.9814352503      -12.3603069012
 C        -6.4042350882        3.9065303833      -12.1182432191
 C        -5.8791264093        5.3937797855      -12.2601253609
 O        -5.3254923805        5.8527572027      -11.2376665425
 C        -5.8998969991        6.1528646489      -13.5930583052
 C        -5.1039575332        7.4992412768      -13.4138469648
 C        -3.6127295318        7.2245591534      -13.4349559733
 O        -3.3461416675        6.0201531262      -13.4514800474
 C        -2.4331849796        8.2034391537      -13.3680452604
 C        -1.9020847495        8.0991811805      -11.9371730322
 O        -1.6037327805        7.0474251133      -11.4421780815
 C        -1.2452458843        9.3313171100      -11.0973167744
 C        -1.8017446175        9.3077639141       -9.6670349200
 C        -3.3752173159        9.0719521499       -9.7582393129
 O        -3.8413153962        8.6685263130      -10.8304236928
 C        -4.2697291962        9.1742037737       -8.4652980335
 C        -3.9719543341        7.9494903026       -7.5521284226
 O        -2.8247071703        7.8029888110       -7.1268896897
 C        -5.0068164093        6.8974273894       -7.4330003839
 C        -4.8251124366        5.7318582046       -6.3594016813
 C        -6.0604487203        4.7560461848       -6.6439950306
 O        -6.9969284129        5.2251597537       -7.3014414308
 C        -6.0386466622        3.3882485144       -6.0107603579
 C        -4.7781365145        2.4900493435       -6.3314482956
 O        -4.1565390080        1.9969003916       -5.4752040831
 C        -4.2684732512        2.3450555119       -7.7682416947
 C        -2.7866882536        2.2520063825       -8.0569764075
 C        -2.3426140868        3.1205141322       -9.3178199472
 O        -3.1325888354        3.8241094053       -9.9341265993
 C        -0.8065719062        3.0899806102       -9.6718349381
 C        -0.4550441052        2.4806624318      -10.9875901137
 O        -0.6691368907        3.0359488724      -12.0809462863
 C         0.0357444469        0.9921710097      -11.1265517973
 C        -0.2867803233        0.1630887506      -12.4042672508
 C        -1.2441177272       -0.9609044359      -12.1449372047
 O        -2.1415398273       -0.7633177788      -11.3002532184
 C        -1.1356438058       -2.2847741957      -12.9188686379
 C        -0.0284971384       -3.1029115662      -12.0828640755
 O         1.0963394826       -2.6766129161      -12.1202974779
 C        -0.3503395392       -4.3692546880      -11.3053372809
 C         0.3384084452       -4.2735488796       -9.9458339113
 C         0.0116393623       -5.3706596658       -8.9522620549
 O        -0.6354457715       -6.3157441729       -9.3015349293
 C         0.6388125207       -5.3472843425       -7.4371429712
 C         1.4968891630       -6.6205820599       -7.3862574699
 O         0.9855297260       -7.7318502948       -7.2387983407
 C         2.9906461109       -6.4278076844       -7.1843177802
 C         3.6937803550       -7.7598535403       -6.9760263596
 C         3.3564087498       -8.5164296662       -5.6644525018
 O         2.8515191413       -7.9744256157       -4.7051904416
 C         3.7363698098      -10.0429297586       -5.5674459199
 C         2.8680223731      -10.8615224030       -6.6841112827
 O         3.1552947510      -10.7123367012       -7.8254947092
 C         1.7683846526      -11.8969791886       -6.3083089511
 C         0.9464201342      -12.3506876252       -7.5971198460
 C        -0.0234999840      -11.2331515026       -7.9947923974
 O        -0.3100944535      -10.2249014836       -7.3331679650
 C        -0.7141881951      -11.3119277727       -9.4482084549
 C        -2.0299264195      -10.5146466696       -9.1974033696
 O        -2.2291591620       -9.5085173718       -9.8189933652
 C        -2.9927200857      -11.1379546797       -8.1712591155
 C        -4.4416771225      -10.5538064376       -8.0193011435
 C        -4.5978197920       -9.0449025328       -7.9181579994
 O        -3.8036158851       -8.2621254960       -7.4613036708
 C        -6.0110455269       -8.3912678787       -8.3992306514
 C        -6.4761033225       -8.1472334229       -9.9017282926
 O        -7.6407879502       -8.2012664181      -10.1582904072
 C        -5.5290238460       -7.2720816400      -10.7713011680
 C        -5.2031861155       -7.9671925352      -12.1716556781
 C        -4.9550211731       -6.9106555373      -13.2938546812
 O        -3.8901917738       -6.6116344226      -13.7930513538
 C        -6.3203531620       -6.0720967745      -13.7432827833
 C        -6.0701097832       -4.5024301822      -13.4580043945
 O        -5.4095262039       -4.1760977925      -12.4768503901
 C        -6.7071035866       -3.3868773747      -14.3456914830
 C        -6.8795654164       -2.1220452947      -13.5021395639
 C        -8.3373139160       -1.7391594908      -13.2294731871
 O        -8.6509489074       -1.7447997545      -12.0537534532
 C        -9.3720468234       -1.3116835960      -14.4496842878
 C        -9.7715010425        0.0860727245      -13.7555095297
 O        -9.1756379062        1.0733546467      -14.1421600584
 C       -10.8925783643        0.0713014616      -12.6458557727
 C        -8.7416007016       -1.0328764047      -15.7906026906
 C       -10.4682232334       -2.4269331107      -14.6026585015
 C        -6.4272958691       -6.2309075834      -15.3432515934
 C        -7.6357138619       -6.5104432423      -12.9370891953
 C        -7.1162901476       -9.2141243270       -7.7275151507
 C        -6.0647357866       -6.9532144403       -7.8288930845
 C         0.2687798476      -10.8806929057      -10.5462002615
 C        -1.1118637367      -12.8514014051       -9.8637689388
 C         5.2621039865      -10.2867618216       -5.8875929826
 C         3.4796120987      -10.5931566623       -4.1292961676
 C         1.3642381100       -4.0014533256       -7.2003726981
 C        -0.5143101814       -5.3303463041       -6.4503167313
 C        -2.5929856701       -2.8786380403      -13.0252336969
 C        -0.5692854651       -2.0476292705      -14.4060128885
 C        -0.4021618802        4.7087839333       -9.6176616552
 C         0.0256163805        2.2843798600       -8.6653209795
 C        -6.1184814500        3.7135837104       -4.5444327064
 C        -7.3423463810        2.6749123979       -6.4325919107
 C        -3.9994471876       10.5177825834       -7.7884519955
 C        -5.7852676612        9.2618840255       -8.9120580530
 C        -1.2886626223        7.5867803634      -14.2729980203
 C        -2.9058303243        9.6702565695      -13.7737511743
 C        -7.7001965002        3.6538667678      -12.8139247021
 C        -6.6426034830        3.6379462125      -10.5726447632
 H        -6.3181807618        1.1953669724      -13.6763231861
 H        -6.6338459235        1.3173371465      -12.0849684463
 H        -4.9555671845        0.7325623944      -12.7183170540
 H        -6.9026497202        6.3628143069      -14.0154645511
 H        -5.3724864877        5.4859924446      -14.3005612703
 H        -5.5050595356        7.9385034270      -12.4377797781
 H        -5.2712919844        8.2486224836      -14.1934064596
 H        -1.5787164079       10.2790512787      -11.4835144413
 H        -0.1885981050        9.2499294150      -11.2106238396
 H        -1.3416897048       10.0572756820       -9.0430299720
 H        -1.4644520587        8.4383348957       -9.2321449559
 H        -5.0087103507        6.4813878811       -8.4528745129
 H        -6.1451412408        7.2811120476       -7.4492560352
 H        -4.8838608581        6.2373410074       -5.4089532887
 H        -3.9335856635        5.0949027620       -6.5001104498
 H        -4.5720580552        3.2622326807       -8.3286117853
 H        -4.7906155259        1.6007374637       -8.3497484050
 H        -2.4844400983        1.1877495487       -8.1876779345
 H        -2.1778933931        2.4378031638       -7.2046091377
 H        -0.4924654538        0.5705294999      -10.2126070930
 H         1.1434377870        0.9352553437      -10.9762086936
 H         0.6239606822       -0.1982721458      -12.8763457303
 H        -0.8093990438        0.7848015792      -13.1417160901
 H         0.0994575509       -5.2717298161      -11.7862904815
 H        -1.3680776786       -4.6097201589      -11.1189691185
 H        -0.0584453895       -3.2743400153       -9.5820053703
 H         1.3751811767       -4.2270952508      -10.0455504131
 H         3.0368479144       -5.6469953193       -6.3632180159
 H         3.2537101813       -5.8733853511       -8.1097386021
 H         4.7731104059       -7.5315722037       -6.9770382371
 H         3.5127004077       -8.4585324909       -7.8171074934
 H         0.9389507900      -11.3791363163       -5.7780661872
 H         2.2036805176      -12.6723998363       -5.6931582526
 H         0.4999730368      -13.3734167516       -7.4006270698
 H         1.5961204452      -12.6364695052       -8.3652221939
 H        -2.5006952034      -11.2014227300       -7.2222123749
 H        -3.1886334624      -12.1899476659       -8.4417745712
 H        -4.8290114133      -11.0626134358       -7.1272484553
 H        -5.0750259169      -10.9068420330       -8.9682296405
 H        -4.5796770975       -6.9549197655      -10.2979993395
 H        -6.0734905038       -6.3135730304      -11.0407117203
 H        -6.0050605457       -8.6175654355      -12.4195842744
 H        -4.3642095216       -8.6011599031      -12.0487351712
 H        -7.6685348373       -3.7390391873      -14.5805452693
 H        -6.1396516832       -3.2479477830      -15.2125548995
 H        -6.3162287843       -1.3217378241      -13.9582827933
 H        -6.3940817624       -2.2614909686      -12.4586389274
 H       -11.6680380706       -0.7022205262      -12.8825935311
 H       -11.2115909013        1.0577912848      -12.5418906998
 H       -10.5348993807       -0.2833612634      -11.6581500572
 H        -8.3192024631       -0.0379656332      -15.6256649769
 H        -9.5097740536       -1.0669725378      -16.5876210056
 H        -7.9657215616       -1.7201234698      -16.1734511966
 H       -11.3882355636       -2.0533586851      -14.9888269654
 H       -10.6978853177       -3.0770882514      -13.7510112883
 H       -10.0649311011       -3.0604008157      -15.4064175969
 H        -6.8322880940       -5.3783287616      -15.9082190722
 H        -7.1929162462       -7.0003742618      -15.5115425895
 H        -5.5366385809       -6.4182029872      -15.8541094431
 H        -7.7395318124       -6.3217534314      -11.9003218941
 H        -7.8944118708       -7.5357691244      -13.0486941591
 H        -8.4416199305       -5.9535484432      -13.5508060339
 H        -8.0193491956       -8.6444619655       -7.8316309742
 H        -6.8816354122       -9.2576328159       -6.6618601883
 H        -7.3245760604      -10.1990789697       -8.0792175820
 H        -5.0306019897       -6.5787032638       -7.7660293749
 H        -6.4357823798       -6.9223490277       -6.8002299968
 H        -6.6271781064       -6.3057273964       -8.4828391649
 H         1.1293444615      -11.5106755903      -10.4542256566
 H         0.5437085681       -9.8028773455      -10.3385592204
 H        -0.1713030366      -10.8837586660      -11.5272971341
 H        -1.5145436472      -12.8356632280      -10.8743774280
 H        -1.9370224972      -13.2240567806       -9.2635619602
 H        -0.2903518835      -13.5396357289       -9.8306030263
 H         5.4277218380      -10.1227933247       -6.9382944538
 H         5.6811390124      -11.2484354376       -5.6406835895
 H         5.8194716900       -9.5263056156       -5.3959243781
 H         3.2362719500       -9.9011391592       -3.3434074289
 H         4.3513277056      -11.1721997147       -3.7248030442
 H         2.6840972765      -11.3821357607       -4.0572125909
 H         1.5951450725       -3.7862358040       -6.1760318646
 H         0.6471823711       -3.2399446403       -7.4536571516
 H         2.2936803253       -3.8712502046       -7.8111230161
 H        -1.1117705067       -6.2964476312       -6.5893972336
 H        -1.1264207568       -4.4665005559       -6.6536821887
 H        -0.0936049554       -5.3412480613       -5.3794375125
 H        -3.1144236663       -2.2678939198      -13.7486873371
 H        -3.0936556902       -2.7742377310      -12.1430610026
 H        -2.5864101416       -3.9678138395      -13.3045200606
 H         0.2455524325       -1.2975848014      -14.4629340054
 H        -1.3057767267       -1.5826921637      -14.9481919440
 H        -0.2161434106       -3.0561753117      -14.7433889166
 H        -0.8445856177        5.1173495863       -8.7134267683
 H        -0.9119649511        5.1539948092      -10.4717050014
 H         0.6520495071        4.7904001979       -9.5768464884
 H         1.1365459875        2.5006491744       -8.5702770490
 H        -0.2039191256        1.1955299410       -8.7957369358
 H        -0.3049046072        2.5331031888       -7.6794540186
 H        -5.2213623815        4.1107384097       -4.0720078294
 H        -6.0987189512        2.7461592418       -4.0283702289
 H        -6.9154400361        4.4285590153       -4.4255548192
 H        -7.4539021280        2.5571632139       -7.4688932514
 H        -8.1705464725        3.2925352534       -6.1899117512
 H        -7.5478641556        1.7064520723       -5.9525046489
 H        -3.0554132266       10.6146735920       -7.2050076388
 H        -4.7550363925       10.9140224674       -7.1301854676
 H        -3.9021185342       11.2792432561       -8.5017451365
 H        -6.1361655628        8.3646331394       -9.4230035901
 H        -5.9231860974       10.1228935794       -9.5101368758
 H        -6.4168037500        9.4223259711       -8.1011931022
 H        -0.6340566988        8.4718584854      -14.5850543023
 H        -1.6471757872        7.0954497161      -15.1534274032
 H        -0.7385089160        6.9001345088      -13.6067605133
 H        -3.4110502297       10.0389055474      -12.8890349889
 H        -3.6275598670        9.6537262875      -14.5431566882
 H        -2.0251194802       10.2896034904      -13.9809440013
 H        -7.6926497095        3.6958525895      -13.9150019924
 H        -8.4664900701        4.3985788618      -12.6006620086
 H        -8.0910498257        2.6382235841      -12.6084066044
 H        -7.7206286311        3.5470129354      -10.3205278651
 H        -6.2468929912        4.4853103497       -9.8995299055
 H        -6.0420966737        2.7598052707      -10.1299143916
 Na       -2.4104371444        4.6488899598      -12.2224496488
 Na       -1.1874548258       -8.2230306518       -8.0563519114
