232

 C        -5.2183425511        1.4665892675      -12.8229406373
 C        -5.0721185626        2.9920590688      -12.6653642335
 O        -4.0760310691        3.4456440697      -13.2781188605
 C        -6.2491618753        4.0020694457      -12.1620779692
 C        -5.6348450231        5.4253673957      -12.1361474132
 O        -4.8002895453        5.7155588067      -11.3394418749
 C        -6.1447283152        6.5073324678      -13.0688888552
 C        -5.0485717052        7.6155610511      -13.1851070845
 C        -3.7414099116        7.2696234848      -13.7874503334
 O        -3.4951705367        6.1531471895      -14.1385739629
 C        -2.5850676644        8.3635997919      -13.6900916239
 C        -2.0084339655        8.1645527526      -12.1835658372
 O        -1.9049774468        7.0245588575      -11.6513521023
 C        -1.4901920334        9.4988695860      -11.5131919683
 C        -2.1364630207        9.7859218427      -10.1545714444
 C        -3.6196343393        9.5040993860       -9.9959958851
 O        -4.3393195819        9.4778460933      -10.9710612421
 C        -4.0986364191        9.4512249574       -8.5159771318
 C        -3.7108019154        8.0912498552       -7.7521612924
 O        -2.6551101582        7.9034666237       -7.1497941143
 C        -4.6974130365        6.8194418627       -8.0311483693
 C        -4.9019379964        6.1383458660       -6.7561318428
 C        -5.9837892673        4.9934044600       -6.6918118427
 O        -7.0731626095        5.2157200741       -7.1480887075
 C        -5.7717773914        3.7218354361       -5.8699382753
 C        -4.3293100176        3.1012770883       -6.2167146529
 O        -3.4860062303        2.8227800059       -5.4014453662
 C        -3.9972996174        2.9742515976       -7.6961981680
 C        -2.5017934595        2.7204351861       -7.9370665875
 C        -2.0001967649        3.2489877564       -9.2034570656
 O        -2.7093737148        3.8946162728       -9.9775299146
 C        -0.5090235176        2.9973498583       -9.6342208723
 C        -0.5777346361        2.2621227827      -10.9657908847
 O        -1.0871659412        2.8103476827      -11.8941719858
 C         0.0349707623        0.8004778310      -11.1618838814
 C        -0.4188869880        0.1065216836      -12.4810530920
 C        -1.5203001445       -0.9567457543      -12.2089617157
 O        -2.3757329518       -0.7197437188      -11.3447790451
 C        -1.4393752331       -2.2501982332      -13.0262641763
 C        -0.4711046067       -3.1524619621      -12.0790670307
 O         0.7289137149       -3.0960687742      -12.2662934158
 C        -1.1709971777       -3.8409338531      -10.8972899720
 C        -0.0470602792       -4.3227505560       -9.9040075094
 C        -0.4011491813       -5.2932675303       -8.8752914373
 O        -1.3034685657       -6.1170004168       -9.0244140005
 C         0.3433495990       -5.2425253327       -7.5231039013
 C         1.2299866967       -6.5949456992       -7.4606546634
 O         0.8249331372       -7.6839931013       -7.8245870549
 C         2.6675654414       -6.4354675424       -7.0292231043
 C         3.4138791113       -7.8162799128       -6.9205408472
 C         2.9710286591       -8.8627135460       -5.7417214833
 O         1.9274766576       -8.6540093474       -5.1994530743
 C         3.7483270643      -10.2494330180       -5.5098045013
 C         3.1280577876      -11.1867134473       -6.6657212905
 O         3.4054626598      -10.9288144553       -7.8331740644
 C         1.8793706575      -12.0390861692       -6.3840283447
 C         0.9760568795      -12.2872450887       -7.6009595924
 C        -0.1711435268      -11.2675231869       -7.8388486717
 O        -0.3000391968      -10.3479388237       -7.0419027948
 C        -0.9558712304      -11.3741944698       -9.1623087709
 C        -2.4251284963      -10.6654972763       -9.3233552897
 O        -2.6470386463       -9.6697515043       -9.9871103002
 C        -3.5668566907      -11.3929098760       -8.5065017135
 C        -4.7584981198      -10.6268032724       -8.1316470721
 C        -4.6247868602       -9.1794713693       -7.8993023155
 O        -3.5951055217       -8.5877943153       -7.5611713764
 C        -5.9286088536       -8.3753178743       -8.0735033154
 C        -6.1301553948       -8.4046359119       -9.6622484964
 O        -7.0391432031       -8.9903267948      -10.2033259755
 C        -5.0174894872       -7.5620710468      -10.6317352412
 C        -4.8069624287       -8.1337045297      -12.1075443145
 C        -4.7850519297       -6.9628027399      -13.1030539178
 O        -3.7912378484       -6.7126026696      -13.7454738069
 C        -6.1898982330       -6.2503226533      -13.5217807484
 C        -5.9690993060       -4.7863575878      -13.1721834422
 O        -5.3394600794       -4.4211891700      -12.1506905684
 C        -6.4661679488       -3.8148831592      -14.2234374091
 C        -6.6316955561       -2.3883575739      -13.5697619678
 C        -8.1620064119       -2.0582132291      -13.1880159487
 O        -8.5441599668       -2.5452577757      -12.1279377511
 C        -9.1617484009       -1.3960965039      -14.1441768261
 C        -9.7271292766       -0.0504803003      -13.5268826032
 O        -9.1953833669        0.9551124961      -13.8544937874
 C       -10.7116176529       -0.0682469298      -12.3834695897
 C        -8.4844631922       -1.0373639489      -15.4013383967
 C       -10.2844867007       -2.4765000219      -14.3633821732
 C        -6.3992877669       -6.5212108110      -15.0427596066
 C        -7.4506667236       -6.9113692068      -12.8016673599
 C        -7.2678914406       -9.0991300214       -7.4818094395
 C        -5.9020802178       -7.0007782857       -7.4912791452
 C        -0.0944242656      -10.5997659829      -10.1362489340
 C        -1.1136146704      -12.7809768588       -9.6720478058
 C         5.2644646253      -10.0226768228       -5.8698722909
 C         3.4640326021      -10.8794534530       -4.1065503061
 C         1.1540511051       -3.9713233265       -7.1808044164
 C        -0.7738579239       -5.3567933241       -6.3928757311
 C        -2.8282724246       -2.7485445801      -13.3258642847
 C        -0.6235063459       -1.9688967828      -14.3406396007
 C         0.1561948239        4.4787834649       -9.7634431898
 C         0.3242479637        2.2041350134       -8.5461771041
 C        -5.7960833724        4.0304466992       -4.3715157319
 C        -6.7935605534        2.6791562020       -6.2881045575
 C        -3.3199720336       10.4262764447       -7.5689170017
 C        -5.6801450186        9.5113402408       -8.5957711659
 C        -1.3842976369        7.9275962006      -14.5955833186
 C        -3.0691496394        9.7794563196      -14.0004259287
 C        -7.4507443547        3.7892432554      -13.1093216680
 C        -6.7319131595        3.5529601217      -10.6529176426
 H        -5.5231386831        1.2736439990      -13.8474000853
 H        -5.9824757053        0.9334959844      -12.1967158817
 H        -4.2394207427        1.0280327595      -12.6986815922
 H        -7.0433814081        7.0424541024      -12.7152733093
 H        -6.3699714295        6.1079154859      -14.0905804203
 H        -4.8375926158        7.9563500550      -12.1648749620
 H        -5.4839171902        8.5830146545      -13.5612845918
 H        -1.3989988848       10.3605602973      -12.2080262949
 H        -0.4737943076        9.2027653316      -11.3534628308
 H        -1.9087581225       10.8329565219       -9.9515372546
 H        -1.6287561270        9.2380788758       -9.2952381237
 H        -4.0340782115        6.3094528711       -8.7239633938
 H        -5.6273315448        7.1161220991       -8.4145634811
 H        -5.1504272549        6.9347776223       -6.0182457590
 H        -3.9393780446        5.8608348993       -6.3948018146
 H        -4.2135511928        3.9166840768       -8.1912616647
 H        -4.5046296150        2.1736856231       -8.2438221713
 H        -2.3363806158        1.6423246476       -7.9308524395
 H        -1.9368626421        3.0036631367       -7.0065061182
 H        -0.4221392727        0.2583638354      -10.4472926016
 H         1.0858173563        0.9457701908      -10.9862041339
 H         0.4084783784       -0.4371164423      -12.9047174610
 H        -0.5701339429        0.7837843209      -13.2820722121
 H        -1.8494978755       -4.5681089463      -11.1832489761
 H        -1.7367120100       -2.9651839458      -10.3836185813
 H         0.5046388378       -3.3332579336       -9.5302363016
 H         0.6298679777       -4.7213749428      -10.6035931586
 H         2.3860558285       -6.1308775127       -5.9710749058
 H         3.1442662840       -5.6211274901       -7.6784393927
 H         4.5072677475       -7.6161314552       -6.8807281510
 H         3.3448437375       -8.3030394249       -7.8966706544
 H         1.2132892591      -11.5234296465       -5.6726420476
 H         2.0451329949      -12.9379111356       -5.9657767194
 H         0.7044963618      -13.2795865837       -7.5216001387
 H         1.5409644634      -12.4554739968       -8.5366705757
 H        -3.1124959381      -11.8777000342       -7.6347434332
 H        -3.9006396846      -12.2850857732       -8.9632686436
 H        -5.0867377435      -10.9259544503       -7.1358217232
 H        -5.5694281267      -10.8869767321       -8.6811987281
 H        -4.0518873679       -7.5526504279      -10.1458287853
 H        -5.3470675596       -6.6084123096      -10.7241577982
 H        -5.5932759250       -8.8496419287      -12.2587429793
 H        -3.8189233599       -8.6479810895      -12.1438497291
 H        -7.3435881096       -4.2836241998      -14.7282708960
 H        -5.6349014429       -3.7688350723      -14.9980232986
 H        -6.2889073713       -1.5192673606      -14.2511202061
 H        -5.9806083783       -2.4038504454      -12.7235714165
 H       -11.6693349370       -0.2301347242      -12.8596742472
 H       -10.7898528695        0.8963934927      -11.9055238716
 H       -10.5263048449       -0.8708795690      -11.6850707765
 H        -7.8994834623       -0.2366678301      -15.2182471061
 H        -9.0605869601       -0.7197440313      -16.2866846675
 H        -7.7673092102       -1.8126954057      -15.5936179602
 H       -11.1993881703       -1.9946467880      -14.3427765328
 H       -10.2368024816       -3.1424486823      -13.4695521037
 H       -10.2729870515       -3.1146361942      -15.1733809607
 H        -7.1137209641       -5.9430776420      -15.4635006618
 H        -6.7041469281       -7.5466010898      -15.2962049430
 H        -5.5400920803       -6.3663295048      -15.6909273327
 H        -7.3901706353       -7.4147068747      -11.7951093641
 H        -7.7000973137       -7.7292623722      -13.4949244323
 H        -8.3034105761       -6.2542390027      -12.7062656904
 H        -8.1154862488       -8.7453748456       -8.0730882084
 H        -7.5428321184       -8.7621303179       -6.5385948153
 H        -7.2429075075      -10.1813199415       -7.5458287958
 H        -5.0649248943       -6.3946965916       -7.9316946210
 H        -5.7665837535       -7.1637960827       -6.4045518358
 H        -6.7716928986       -6.3898626812       -7.5006256723
 H         0.9074705586      -11.0583126294      -10.2985520272
 H         0.2163484748       -9.6830147155       -9.6564397018
 H        -0.5842710577      -10.4268014199      -11.0903349189
 H        -1.1536386903      -12.6159977289      -10.7112167784
 H        -1.8319701155      -13.4956524877       -9.2626305590
 H        -0.2055956347      -13.3764227115       -9.5356862462
 H         5.3274271820       -9.6684629169       -6.8442976424
 H         5.6769191277      -10.9918068051       -5.7279805846
 H         5.7861513253       -9.3126304371       -5.2122275856
 H         4.2673701984      -11.5567290819       -3.7341110665
 H         2.5450316145      -11.4742345605       -4.0167570414
 H         3.3415499949      -10.1191747121       -3.3221617493
 H         1.6513737547       -4.2032964477       -6.2350716939
 H         0.4747169498       -3.1201189833       -7.0573948496
 H         1.9415834775       -3.6894292765       -7.8837280101
 H        -1.2641785869       -6.3462815162       -6.5362449227
 H        -1.5732975711       -4.7021536854       -6.6889934056
 H        -0.2997621101       -5.0347238291       -5.4028226398
 H        -3.1121873699       -2.4597811137      -14.3501586217
 H        -3.4515839729       -2.3733463955      -12.5142452465
 H        -2.8140514398       -3.8542223310      -13.2697654854
 H         0.4875383943       -1.8632862728      -14.0231693871
 H        -1.2351463881       -1.2675504299      -14.9231445370
 H        -0.6249767139       -2.8290039465      -15.0253983157
 H         0.2509764790        4.7858757433       -8.6983245548
 H        -0.6021593736        5.0364233530      -10.2710183535
 H         1.0624790704        4.4396012976      -10.3269189848
 H         1.3537112554        2.0806026638       -8.7332843518
 H         0.1605321684        1.1005870935       -8.5108938389
 H         0.1358984218        2.5487121549       -7.5233809445
 H        -5.3888649657        5.0597192663       -4.2445788899
 H        -5.2936878965        3.2991677789       -3.6969055949
 H        -6.8174838411        4.0795564849       -4.1161281484
 H        -6.6321127087        2.4414872559       -7.3315290950
 H        -7.8729685003        2.8827539458       -6.2065290776
 H        -6.6185269217        1.7618893474       -5.8361878342
 H        -2.2778946574       10.2161592619       -7.4053791814
 H        -3.7307820510       10.5209118505       -6.5876540321
 H        -3.3274951907       11.4658592020       -7.9309192991
 H        -6.0422650565        8.9445275820       -9.3963114234
 H        -5.8856149565       10.5549879238       -8.8481075476
 H        -6.1587913034        9.2256155427       -7.6979041306
 H        -0.4904830174        7.7570652486      -14.0302528197
 H        -1.1936764729        8.6492048351      -15.4071395474
 H        -1.6294670153        7.0139090565      -15.0574702360
 H        -3.5525025849       10.1978047653      -13.0763539836
 H        -3.7439536395        9.7607038334      -14.8036474573
 H        -2.2654752169       10.4304779340      -14.3169961348
 H        -7.1290707801        3.8176799596      -14.1582478790
 H        -8.3515125866        4.4559480736      -13.0314250855
 H        -7.9421269735        2.8089517027      -12.9848115046
 H        -7.0052186870        4.5173982096      -10.1138539278
 H        -5.9042967211        3.2514438606      -10.0760561439
 H        -7.4882572920        2.7546968375      -10.7797925462
 Na       -2.6405355886        4.8911956315      -12.0996034006
 Na       -1.2930615317       -8.3656152389       -8.1665904594
