232

 C        -5.3882897517        1.4205763186      -12.8012194726
 C        -5.0597792809        2.9083750850      -12.8926042922
 O        -4.1085658103        3.3570307468      -13.3997494086
 C        -6.1585071597        3.8289719728      -12.2457407534
 C        -5.5932495762        5.3814061149      -12.2096801175
 O        -4.8961724590        5.6977285279      -11.2628377593
 C        -6.0898309546        6.5055445844      -13.1931502724
 C        -5.1148810211        7.7198799168      -13.1877075152
 C        -3.7981656925        7.3612059376      -13.7836698610
 O        -3.5570514468        6.2811217926      -14.2635784709
 C        -2.5725570977        8.4055338341      -13.7170513902
 C        -1.9658161417        8.3389081934      -12.3083740504
 O        -1.8156661708        7.1786389024      -11.8279992337
 C        -1.4642792080        9.5401890190      -11.5436798659
 C        -2.0493013731        9.7294470602      -10.1088280287
 C        -3.6286275751        9.6320882418       -9.9305793256
 O        -4.4919869280        9.7117644057      -10.7975971931
 C        -4.0825919551        9.4910724459       -8.4659248511
 C        -3.6868338536        8.0185962974       -7.9343664876
 O        -2.6596430479        7.9082764396       -7.2937619798
 C        -4.7064453408        6.8107076682       -7.9894724630
 C        -4.9361171374        6.2553121343       -6.5773343959
 C        -6.0311181020        5.0667725598       -6.6957897408
 O        -7.0899888049        5.2551997923       -7.3008523845
 C        -5.6493476625        3.8294754169       -5.8336042851
 C        -4.2571532596        3.2834450148       -6.1466445560
 O        -3.5313800409        2.9850894658       -5.2656034781
 C        -3.9881704667        2.7708707758       -7.6195566215
 C        -2.3854305672        2.6610284953       -7.8786037582
 C        -1.9043411730        3.3193417315       -9.0760290686
 O        -2.6228274548        3.9945697146       -9.8450218944
 C        -0.4637169737        3.0477142685       -9.5948820193
 C        -0.6362294203        2.3363102742      -10.9877554809
 O        -1.1362830893        2.7903370761      -12.0126786748
 C        -0.0016214366        0.8784372929      -11.0804034448
 C        -0.3626655243        0.1898945327      -12.4177757449
 C        -1.4649054934       -0.8243990481      -12.2846578980
 O        -2.2855199083       -0.6361053618      -11.3502023109
 C        -1.5206680956       -2.1957125613      -13.0764106315
 C        -0.6081291366       -3.0911824402      -12.1331317889
 O         0.5685948865       -3.2466675629      -12.2990888021
 C        -1.2060133076       -3.7719139580      -10.8834711773
 C        -0.0919512635       -4.3653290312       -9.9015107489
 C        -0.5490841558       -5.2914559730       -8.8385190925
 O        -1.4322234795       -6.0881282922       -8.8946231996
 C         0.3138092058       -5.3317596962       -7.4195052247
 C         1.2716117120       -6.6001334074       -7.4674648263
 O         0.7983403267       -7.6060747596       -7.9755257979
 C         2.6778129704       -6.5627808413       -6.8109400524
 C         3.3377686447       -7.8643116454       -6.8293394973
 C         2.9213919514       -8.8109834346       -5.7656238088
 O         1.8481262594       -8.7439165912       -5.1447505297
 C         3.7644915003      -10.1650432138       -5.6138203982
 C         3.0027658871      -11.0200323298       -6.8209635014
 O         3.4945692739      -11.0778575106       -7.9052511395
 C         1.7683339314      -11.9468175094       -6.3757592826
 C         0.7821514739      -12.4389263445       -7.5308639603
 C        -0.3306606267      -11.3338610202       -7.7740790808
 O        -0.4841161668      -10.4028548846       -6.9901571797
 C        -1.0061621952      -11.3412905983       -9.2935173653
 C        -2.3591665479      -10.6483519008       -9.2892106071
 O        -2.4993657605       -9.6498990129       -9.9363487121
 C        -3.4831272051      -11.4304157513       -8.5439960373
 C        -4.7437864139      -10.8051504762       -7.9219739336
 C        -4.6838632621       -9.2675705565       -7.7124348343
 O        -3.6670248323       -8.6475527986       -7.4123147281
 C        -5.8998918237       -8.3758197886       -8.1372667603
 C        -6.1059737563       -8.4370073357       -9.8255212098
 O        -6.9827819214       -9.0761183393      -10.2821186860
 C        -5.2170127058       -7.5101992858      -10.6043533779
 C        -4.8077960465       -8.1296375290      -11.9989605992
 C        -4.7332725568       -7.0908040757      -13.1430154285
 O        -3.7011043703       -6.7019599859      -13.6694951274
 C        -6.1176577258       -6.4277615486      -13.4932889429
 C        -5.9402998224       -4.8565743773      -13.0859213748
 O        -5.4348318049       -4.5488794833      -12.0232826956
 C        -6.4328906115       -3.7486215296      -14.0697878564
 C        -6.6473953544       -2.3637704411      -13.4449953835
 C        -8.1664457824       -2.1709843509      -13.1758809420
 O        -8.5375026141       -2.5072743588      -12.0753263556
 C        -9.1071420294       -1.4484648699      -14.1867269060
 C        -9.5481800639       -0.1094053807      -13.4293183670
 O        -9.0310019154        0.9688187045      -13.6615789213
 C       -10.6417263101       -0.2597726841      -12.2826671018
 C        -8.5088997759       -1.0908527699      -15.6392636618
 C       -10.4069102482       -2.4587036064      -14.3872314065
 C        -6.2528630160       -6.6245372560      -14.9744554312
 C        -7.3359671435       -6.8776207851      -12.7121567707
 C        -7.1421699857       -9.0816960984       -7.3636800601
 C        -5.6989074434       -6.9431265397       -7.7319173901
 C         0.0952881802      -10.6917944645      -10.2075887881
 C        -1.2927690714      -12.8387851918       -9.8544309322
 C         5.2584362190       -9.9382494206       -5.7464187899
 C         3.4623176261      -10.7228135134       -4.2329467687
 C         1.0556817495       -4.0217944759       -7.1589520157
 C        -0.7460115705       -5.4932257366       -6.2929959222
 C        -2.9261140038       -2.9028061028      -13.3972233123
 C        -0.7234146654       -2.0391983413      -14.4031658366
 C         0.2963633858        4.4151484919       -9.8652544409
 C         0.4329015143        2.1790996004       -8.7549469112
 C        -5.8180404552        4.1953950285       -4.3541933596
 C        -6.5988713462        2.6223843941       -6.1626948132
 C        -3.3504686308       10.5394608138       -7.6559524551
 C        -5.6022407191        9.7697408325       -8.3911186987
 C        -1.3986724147        7.8212021341      -14.5885428049
 C        -3.0467075020        9.8723700121      -14.0718611774
 C        -7.4319271430        3.6836678745      -13.0553885431
 C        -6.7158823587        3.4989799225      -10.7529903859
 H        -5.7140495282        0.9832586929      -13.7426092273
 H        -6.2118076553        1.2409750137      -12.0819096273
 H        -4.5527196256        0.8691062438      -12.4233041328
 H        -7.0653730662        6.9112178019      -12.9754483154
 H        -6.1046705971        6.0604665652      -14.2054411952
 H        -5.0611757728        8.1446690214      -12.1477127078
 H        -5.5218485965        8.5637449492      -13.6729902212
 H        -1.4836968186       10.4863014805      -12.1791832665
 H        -0.3870026912        9.2649880621      -11.5543499792
 H        -1.7735815734       10.8256998318       -9.8321135339
 H        -1.5790890881        9.1030761327       -9.3119564253
 H        -4.2408476640        6.1512162490       -8.6221688342
 H        -5.7112035774        7.2745716110       -8.3225929309
 H        -5.0175287412        7.0125805635       -5.7928933986
 H        -3.9950934475        5.7943589025       -6.3003550038
 H        -4.4745996197        3.4649529341       -8.3415749833
 H        -4.3555901885        1.7711356782       -7.7741271955
 H        -2.0944407124        1.5508116783       -7.8957183243
 H        -1.9435600272        2.9490199259       -6.9490510830
 H        -0.4249523165        0.2746443500      -10.3126708438
 H         1.0331119241        1.1435279963      -10.9933524021
 H         0.4968305916       -0.2599308080      -12.9406666979
 H        -0.5604117501        0.9737580140      -13.1810093881
 H        -1.7845787858       -4.6035169729      -11.3271939562
 H        -1.8870146510       -3.1821573823      -10.2586898918
 H         0.4859228430       -3.4645209462       -9.4887621358
 H         0.6407320458       -4.8883735863      -10.5646277701
 H         2.5435067882       -6.2041114802       -5.8006597027
 H         3.1896597176       -5.8999881938       -7.5278372195
 H         4.4174001912       -7.6947526011       -6.8630552131
 H         3.1935701364       -8.2989667231       -7.8154589345
 H         1.0396866200      -11.4964944143       -5.6287721060
 H         2.2250600882      -12.8088782999       -5.8398003966
 H         0.5544280785      -13.5833634861       -7.5192815242
 H         1.3476126366      -12.5019260874       -8.4555032413
 H        -3.0050437883      -12.0702507308       -7.7767469294
 H        -3.8405529805      -12.2451973759       -9.1480116447
 H        -5.0462290494      -11.3430363164       -7.1113238841
 H        -5.6012574731      -10.9767188524       -8.6140266811
 H        -4.3489072778       -7.2933036498      -10.0328140589
 H        -5.7596356948       -6.6136954590      -10.7720514021
 H        -5.5707597289       -8.9297736425      -12.1401895272
 H        -3.7981667449       -8.6219189124      -11.8426705599
 H        -7.4142482169       -4.2520029433      -14.3911782450
 H        -5.8193273761       -3.6223382361      -15.0562729730
 H        -6.4320426064       -1.5397331647      -14.1279715215
 H        -6.0232100333       -2.2716018196      -12.5719597562
 H       -11.6000810111       -0.6676221328      -12.6234947113
 H       -10.8847787585        0.6447823232      -11.8655262197
 H       -10.2075412097       -0.9093928317      -11.5357511464
 H        -7.9451173795       -0.1702887028      -15.5971096737
 H        -9.2751666031       -0.8535154338      -16.3236029785
 H        -7.8352082521       -1.8045165614      -15.9894582921
 H       -11.3071137339       -1.9690576115      -14.1810454655
 H       -10.3320498439       -3.3488649826      -13.8039424690
 H       -10.5191116530       -2.7908684827      -15.4153086843
 H        -7.0262095914       -5.9130681665      -15.2814534093
 H        -6.5471493847       -7.6021691551      -15.3332440662
 H        -5.4303674805       -6.4600680786      -15.5557629696
 H        -7.4114715093       -6.9625743098      -11.6678913248
 H        -7.6553264676       -7.8165079730      -13.1294378822
 H        -8.1769225705       -6.1069763473      -12.9877132221
 H        -8.1264769952       -9.0456489784       -7.8338764561
 H        -7.3056193431       -8.4793296384       -6.4435295529
 H        -6.9112543635      -10.1244125946       -7.0853742521
 H        -4.6205134123       -6.7363028929       -8.0374467788
 H        -5.8083327106       -6.7856712798       -6.6303137565
 H        -6.3015280771       -6.1331315968       -8.1443964536
 H         1.0761058210      -11.0665773833      -10.0401086657
 H         0.2467559727       -9.5899765078       -9.9482155855
 H        -0.1549423925      -10.7857091075      -11.2603806859
 H        -1.6686329345      -12.7396723607      -10.8934152899
 H        -1.8201627525      -13.5756290329       -9.2311497226
 H        -0.3415623102      -13.3953478366       -9.9710613854
 H         5.4885333499       -9.3262478681       -6.6256371684
 H         5.6552744525      -10.9656507390       -5.8033348936
 H         5.6888922582       -9.4412739892       -4.8453866291
 H         3.8937437460      -11.6503475471       -4.0206563366
 H         2.4070252118      -10.8002188572       -3.9331786102
 H         3.9209285056      -10.0253471248       -3.5255003205
 H         1.6494141676       -4.1116857603       -6.2593465336
 H         0.3699515643       -3.1972662563       -7.1023298624
 H         1.7913050608       -3.8091946884       -7.9921914332
 H        -1.3135959486       -6.4155337754       -6.4644490145
 H        -1.4357235469       -4.7145867163       -6.4794314065
 H        -0.2342301665       -5.2996555583       -5.3384868502
 H        -3.2985137425       -2.3922224505      -14.3287911287
 H        -3.5541814784       -2.8091684390      -12.5634651835
 H        -2.7552869581       -4.0200465207      -13.6692585313
 H         0.3103367074       -1.7164831676      -14.1358605452
 H        -1.3603459979       -1.5528370118      -15.0699500173
 H        -0.6142892203       -3.0159024830      -14.9767485822
 H         0.3478111679        4.9351836422       -8.8963189952
 H        -0.4659428761        4.8294991502      -10.5489896552
 H         1.2176752738        4.2897102764      -10.3915610048
 H         1.3115256386        1.7108180997       -9.1762148997
 H        -0.0387909102        1.2101969397       -8.4238195278
 H         0.6279623838        2.5882354282       -7.8122292295
 H        -5.3511149736        5.1282040540       -4.1276105384
 H        -5.5181648492        3.3714873346       -3.7058024516
 H        -6.8820791570        4.2317854757       -4.2083972050
 H        -6.5420083473        2.2560872350       -7.1706510902
 H        -7.6207991339        2.9977415102       -6.0484275389
 H        -6.5541528880        1.6937268245       -5.5445526776
 H        -2.2726398241       10.3248463463       -7.4309989431
 H        -3.7715357654       10.7576468262       -6.6854658777
 H        -3.3296056326       11.4681429491       -8.1680547061
 H        -6.1153850038        9.2939715347       -9.2604658499
 H        -5.6531343874       10.8350770387       -8.5809660073
 H        -6.0652630419        9.5087486610       -7.4733886047
 H        -0.4362072459        7.8799713244      -14.0994933950
 H        -1.3564243043        8.3720260684      -15.4309953974
 H        -1.5344656867        6.8280000976      -14.8488364107
 H        -3.8938537863       10.0352039328      -13.3994946937
 H        -3.2478769372       10.0658351387      -15.0846926533
 H        -2.3155735964       10.6565724387      -13.7830822583
 H        -7.2727492757        3.8333772833      -14.1295575290
 H        -8.1266721024        4.4845040838      -12.7596983493
 H        -8.0819085280        2.8084864678      -12.9202132966
 H        -6.6834025865        4.3842560093      -10.1928698510
 H        -6.0552857759        2.7928105132      -10.2501786051
 H        -7.6960272790        3.1159971027      -10.8887105366
 Na       -2.5075875856        4.8508887755      -12.2165814474
 Na       -1.3823559312       -8.3299209891       -8.3599664107
