232

 C        -5.5302364525        1.4076322496      -12.7872327615
 C        -5.1420346891        2.9055690950      -12.8781038100
 O        -4.1130870403        3.2057098888      -13.4177892224
 C        -6.2691754543        3.9585224676      -12.2862898451
 C        -5.6658320656        5.3321122660      -12.2071047674
 O        -4.8682585826        5.6112996162      -11.2523722135
 C        -5.9839430504        6.3360686478      -13.2598445005
 C        -5.2406265928        7.7225671450      -13.2211882697
 C        -3.8134203760        7.4456568071      -13.8225408890
 O        -3.6270143746        6.3130489394      -14.3193550662
 C        -2.5826488975        8.4241613366      -13.7348862656
 C        -1.9528607381        8.3463439277      -12.2777336637
 O        -1.7260321457        7.2635235419      -11.8426986938
 C        -1.5049687476        9.6063818522      -11.4966581409
 C        -2.1030704475        9.6454651959      -10.1199884994
 C        -3.5785910446        9.7066008160       -9.9164642983
 O        -4.3713353708        9.8979636958      -10.8153262110
 C        -4.0812851321        9.5876006973       -8.3608063037
 C        -3.7597624136        8.0674504363       -7.8730761217
 O        -2.6305088227        7.8671880136       -7.5268471116
 C        -4.7354742764        6.9021807248       -8.0219533540
 C        -5.0339949282        6.2733882158       -6.5729263178
 C        -6.0155332691        5.1534721277       -6.6517487339
 O        -6.9505211800        5.2460890304       -7.3989812735
 C        -5.7162100211        3.9073545103       -5.8379086404
 C        -4.2109398695        3.2814860100       -6.0667885543
 O        -3.4057556374        3.2076022219       -5.1348985072
 C        -3.8659275938        2.6878774795       -7.4684466833
 C        -2.2889468892        2.5460759067       -7.7945710777
 C        -1.9011974115        3.3267051969       -9.1592592072
 O        -2.6076641862        4.1610414905       -9.6532396952
 C        -0.4023672169        3.0341561090       -9.7135541676
 C        -0.5639746329        2.3414523368      -11.1442083914
 O        -1.2199829864        2.8994335440      -12.0095562638
 C        -0.0634515081        0.8862013560      -11.2128794484
 C        -0.3299780006        0.1771882205      -12.4705919370
 C        -1.5102714109       -0.7896664231      -12.2704331599
 O        -2.3295023515       -0.6519467652      -11.3948263100
 C        -1.4518920925       -2.1238295333      -13.0768961232
 C        -0.6926892341       -3.1709152128      -12.1166885593
 O         0.4706322596       -3.3200792458      -12.4231160352
 C        -1.3605186826       -3.8506712172      -10.7924808092
 C        -0.1843280103       -4.3298753853       -9.9278276865
 C        -0.6251062770       -5.2529516818       -8.7411124174
 O        -1.5808118457       -5.9903851595       -8.9416236722
 C         0.1697203117       -5.3405458897       -7.3435482959
 C         1.1579602087       -6.5864342290       -7.4554428400
 O         0.9177718112       -7.5954938254       -8.0833265995
 C         2.5350709321       -6.5363845779       -6.7081219010
 C         3.3308870983       -7.8579681401       -6.8314929571
 C         2.7346602504       -8.8591001533       -5.8374409227
 O         1.7915204218       -8.6543692422       -5.0932490874
 C         3.6626704879      -10.2131393911       -5.6754551035
 C         2.9953092241      -11.1524897214       -6.8203516112
 O         3.4794543506      -11.1752834826       -7.9318231582
 C         1.7564000518      -11.7838389005       -6.3866386518
 C         0.7687307568      -12.2630430142       -7.4199089711
 C        -0.2870587740      -11.4087457809       -7.9197091218
 O        -0.8017926043      -10.5270556691       -7.2463680731
 C        -0.8878358748      -11.4394895176       -9.3248791876
 C        -2.3040717423      -10.7082039060       -9.2297142490
 O        -2.5042917214       -9.6225176161       -9.7814709347
 C        -3.3566221256      -11.4882066157       -8.5707349167
 C        -4.6434761151      -10.7812386401       -7.9309493746
 C        -4.5816459768       -9.2539150064       -7.8667739355
 O        -3.6302104355       -8.8002487707       -7.2584506118
 C        -5.8356211621       -8.3999295831       -8.1600852690
 C        -6.1225039923       -8.4548806018       -9.7391025436
 O        -6.9065378441       -9.2155849142      -10.3006229587
 C        -5.1730007708       -7.5524335448      -10.5036920505
 C        -4.7524131833       -8.1403112597      -11.8519574407
 C        -4.7242120206       -7.0942482215      -12.9357359861
 O        -3.6921757547       -6.8415698139      -13.5015235186
 C        -6.1075706158       -6.3542454728      -13.5352457926
 C        -5.9473315085       -4.8984097960      -13.0122992216
 O        -5.5277030699       -4.6635477431      -11.9226389461
 C        -6.4607415781       -3.7837157998      -13.9867636396
 C        -6.6086486383       -2.3892428404      -13.4388299735
 C        -8.1519351671       -2.1346848024      -13.1053052440
 O        -8.6391974443       -2.4756230346      -12.0768585718
 C        -9.1557908302       -1.4589254229      -14.1682001137
 C        -9.4640421199       -0.2611686916      -13.3766447644
 O        -8.8750595787        0.8314578781      -13.4947049804
 C       -10.4695913231       -0.4177655404      -12.2478832069
 C        -8.5976910360       -1.1906384913      -15.5819985150
 C       -10.3736369063       -2.3513233199      -14.4383082868
 C        -6.1446762214       -6.6431817245      -15.0118489410
 C        -7.3340307258       -6.8276542765      -12.7946308642
 C        -7.0793844163       -8.9179169198       -7.4014310793
 C        -5.5876544025       -6.9111252755       -7.8909789377
 C         0.1191942037      -10.7810548640      -10.1894782542
 C        -1.2463679189      -12.8609215325       -9.9178765620
 C         5.1678500881       -9.9891574927       -5.8378498837
 C         3.4120421096      -10.6995883207       -4.2395705078
 C         1.0641562300       -4.0243772421       -7.1695303052
 C        -0.7289647796       -5.6720871418       -6.1513851193
 C        -2.8247007827       -2.8585362679      -13.2784834808
 C        -0.7966586430       -2.1385655223      -14.5269968860
 C         0.4137496332        4.3953254761      -10.0121368454
 C         0.5265854265        2.2839374746       -8.6901034142
 C        -5.8267760716        4.3418892293       -4.3377095441
 C        -6.6282044715        2.6271858604       -6.0969763025
 C        -3.3475242705       10.6763290584       -7.5971755174
 C        -5.5677612884        9.9561344711       -8.1727634712
 C        -1.4469147988        7.9453292246      -14.7042926467
 C        -3.0122763912        9.8297226066      -14.2235869593
 C        -7.4528578172        3.7719254341      -13.2753973832
 C        -6.4229403140        3.4522381421      -10.8420155662
 H        -5.7257479837        1.0685161197      -13.8073423785
 H        -6.3695597129        1.1678769145      -12.1612149348
 H        -4.7005843571        0.7874047230      -12.3297644167
 H        -7.0299083402        6.5895938625      -13.0774156945
 H        -5.9253975309        5.8833154544      -14.2265279449
 H        -5.3796550677        8.1755541637      -12.2358124044
 H        -5.7476385736        8.4543306268      -13.8115112765
 H        -1.7978957305       10.4218513759      -12.1347985838
 H        -0.3678985132        9.6021944974      -11.5281211471
 H        -1.6660541738       10.5070466888       -9.5269237236
 H        -1.7953144868        8.7550537165       -9.5742219473
 H        -4.2192697056        6.2627159149       -8.7723915724
 H        -5.6929247982        7.3521910402       -8.2986489990
 H        -5.4584944496        7.0188610424       -5.9330714092
 H        -4.1134235347        6.0069816492       -5.9699569691
 H        -4.4651797131        3.1836696316       -8.2622336100
 H        -4.1815207202        1.6383538680       -7.4132088202
 H        -1.9996643872        1.4931080481       -7.6124344484
 H        -1.8804652918        3.0322234389       -6.9285027491
 H        -0.5803491381        0.3255399328      -10.3102930355
 H         0.9901462128        1.1354578682      -11.0847711231
 H         0.5887304838       -0.2464435071      -12.9375881025
 H        -0.5065145066        0.9373341932      -13.2886885024
 H        -2.0294218547       -4.7334744894      -11.1458026183
 H        -1.9329009698       -3.2253385761      -10.1966357830
 H         0.3370580338       -3.5079325549       -9.6999208653
 H         0.5555805117       -4.9494999208      -10.5866244824
 H         2.4256288727       -6.3654465157       -5.6657532035
 H         2.9805660080       -5.8059733582       -7.2960756306
 H         4.3551401304       -7.6238113513       -6.6015037330
 H         3.4392477392       -8.2554624823       -7.8444117346
 H         1.1661497232      -11.2022669574       -5.6635276443
 H         2.0852859624      -12.7569692600       -5.7586610230
 H         0.1080531157      -13.1125629979       -6.9385198823
 H         1.2313584451      -12.9629511793       -8.1242236394
 H        -2.9108336517      -12.1602543832       -7.8416989691
 H        -3.7391044231      -12.2920097703       -9.2661828676
 H        -4.7494709408      -11.1443256409       -6.8660665409
 H        -5.6173933143      -11.1697577465       -8.3827351682
 H        -4.2778853293       -7.3870565846       -9.9014180490
 H        -5.7081646377       -6.5488608423      -10.7704311440
 H        -5.5482738666       -8.9161784146      -12.0969581006
 H        -3.7923964069       -8.6344899902      -11.7542711355
 H        -7.3039072298       -4.2445237876      -14.5358494358
 H        -5.6945645937       -3.6537616565      -14.7743032833
 H        -6.2852888807       -1.6459742540      -14.0743440203
 H        -6.0089973602       -2.3599906107      -12.4864559833
 H       -11.4157387658       -0.8461237799      -12.4948539628
 H       -10.7227147572        0.5776406386      -11.7978920720
 H        -9.9330603189       -0.9915305254      -11.5160153847
 H        -7.8769380441       -0.3047426183      -15.5917828446
 H        -9.3708603735       -0.8111256933      -16.1735297634
 H        -8.1160710252       -2.0156844675      -16.0522822569
 H       -11.3789439347       -1.8187587512      -14.4283522601
 H       -10.4268241023       -3.2306267414      -13.8690163294
 H       -10.2647086077       -2.6520978129      -15.5041223240
 H        -7.1154522574       -6.2226824198      -15.4127253337
 H        -6.1740446390       -7.6945796781      -15.1599068758
 H        -5.3379375460       -6.4405908336      -15.7388685434
 H        -7.4224027638       -6.3495199336      -11.8264829726
 H        -7.4070584251       -7.9139186333      -12.6708782492
 H        -8.2338430854       -6.4854129778      -13.3053917426
 H        -8.0365462022       -8.9064936200       -7.9481004533
 H        -7.2634854197       -8.1665139465       -6.5594321636
 H        -6.9408632379       -9.9216585812       -6.9641533864
 H        -4.5390502307       -6.7488912824       -8.0809675296
 H        -5.8681943722       -6.4512229272       -6.9295914903
 H        -6.1087688145       -6.2491001997       -8.6491320219
 H         1.1591602436      -11.0064819613      -10.0366387190
 H         0.0760841529       -9.6885580038      -10.1212712933
 H        -0.1860559200      -11.0523044810      -11.2124208900
 H        -2.0859205867      -12.7985295605      -10.6723064013
 H        -1.5136672629      -13.4821503652       -9.0764390334
 H        -0.4819805893      -13.4914096391      -10.3991203033
 H         5.4600461981       -9.4222187581       -6.8087342168
 H         5.6322802752      -11.0091017476       -5.7339753089
 H         5.4756405263       -9.3725278426       -4.9813122302
 H         3.4209657149      -11.7706137835       -4.2014742020
 H         2.4939951489      -10.4201732864       -3.7573066239
 H         4.2534339562      -10.4099384233       -3.6430771270
 H         1.5291414975       -3.9991081051       -6.1821343468
 H         0.4381810470       -3.1402149894       -7.3293182546
 H         1.8550419566       -3.9704285741       -7.9127558640
 H        -1.2459661703       -6.5411424129       -6.4301332904
 H        -1.4415324894       -4.8474479551       -5.9011844008
 H        -0.0575087305       -5.7740244012       -5.3979480438
 H        -3.4129294076       -2.1692758481      -13.8846980655
 H        -3.3020468026       -2.9972068066      -12.2709073555
 H        -2.6958359664       -3.7637277381      -13.8239001027
 H         0.1676110366       -1.8471324534      -14.4947346955
 H        -1.5294468600       -1.6737474455      -15.1800318981
 H        -0.8531257225       -3.1157142537      -14.9750572014
 H         0.4023503430        4.8898298476       -9.0743025514
 H        -0.1202655933        4.8947492339      -10.8395545005
 H         1.4488089601        4.1405893492      -10.3460990106
 H         1.3616321742        1.6580334390       -9.0427876664
 H         0.0236103776        1.4945922618       -8.1687171164
 H         0.8213021018        2.8563872351       -7.7907206348
 H        -5.0925873945        5.0935653154       -4.2276588283
 H        -5.6383322430        3.4495331183       -3.7820955218
 H        -6.8461703959        4.5960414072       -3.9560360133
 H        -6.6364155504        2.0712640775       -7.0512961749
 H        -7.6418892719        2.9011024739       -5.8415375733
 H        -6.4425680748        1.8226411774       -5.3141685207
 H        -2.3098609004       10.4265841400       -7.3991613142
 H        -3.7427171156       10.8657768702       -6.5837058314
 H        -3.3145080641       11.6450588749       -8.1120035793
 H        -6.2242475769        9.3764595671       -8.8766097460
 H        -5.6819381902       11.0132014966       -8.3590192602
 H        -5.8596813524        9.7282011955       -7.1015764285
 H        -0.5134157250        8.3857429717      -14.4394676722
 H        -1.6476776145        8.2171508323      -15.7390636832
 H        -1.2698959386        6.8755638240      -14.6279985671
 H        -3.9264636562       10.1485149936      -13.8081215699
 H        -2.9856115815        9.8844347671      -15.3723253398
 H        -2.2928252811       10.6007431257      -13.9454104848
 H        -7.2255722295        4.1665351302      -14.2701329205
 H        -8.3254941891        4.2847808878      -12.9514981684
 H        -7.8638630617        2.7755893839      -13.3627414402
 H        -6.1885087592        4.2038511188      -10.1485196707
 H        -5.7281314858        2.5858247553      -10.7416217333
 H        -7.4463845862        3.1832073257      -10.7277840146
 Na       -2.4620208998        4.8466566946      -12.3049684922
 Na       -1.5024533270       -8.3104805759       -8.4120621633
