232

 C        -5.6442955501        1.4146170473      -12.9000203479
 C        -5.2300957908        2.8465701738      -12.9655657203
 O        -4.0533807152        3.1875841169      -13.2968073564
 C        -6.1827419660        3.8651808517      -12.3456434188
 C        -5.5816626507        5.3307789361      -12.2598246467
 O        -4.7644289594        5.5718899222      -11.3836911955
 C        -6.0548632587        6.3634842949      -13.3373255163
 C        -5.1951933319        7.6710791437      -13.3070598185
 C        -3.7743091406        7.3849651683      -13.8694452430
 O        -3.5429517779        6.2652430837      -14.3215011030
 C        -2.6046952276        8.4618900152      -13.7948470192
 C        -1.9985935596        8.2884285193      -12.3453355852
 O        -1.6865910979        7.2679998658      -11.8198936608
 C        -1.6819716776        9.6500773288      -11.4534849968
 C        -2.0548730100        9.5049075609      -10.0059680462
 C        -3.5981565754        9.7844571152       -9.8418683756
 O        -4.2544851699       10.0134033125      -10.8226119818
 C        -4.0834977501        9.7095268505       -8.2963030968
 C        -3.6965173731        8.2299166507       -7.9128021269
 O        -2.5521622670        7.8708295884       -7.7255875077
 C        -4.8514736001        7.1501828103       -7.9630812320
 C        -5.0524463543        6.4467831650       -6.6265863789
 C        -5.9234799965        5.1574835014       -6.8368657878
 O        -6.9049092883        5.0960882273       -7.5006201461
 C        -5.5913095175        3.7776492115       -5.7183536140
 C        -4.1432916045        3.2733593876       -5.9862579805
 O        -3.3189881141        3.4902826861       -5.0963045859
 C        -3.7300334995        2.7191809843       -7.3935378360
 C        -2.2573090122        2.6527994535       -7.7849480341
 C        -1.7942122607        3.4481864884       -9.0217191784
 O        -2.5411870947        4.2055802840       -9.5904532956
 C        -0.4356980885        3.0978387242       -9.7011923661
 C        -0.6166431644        2.3521219745      -11.0786495864
 O        -1.1712282290        2.9073779669      -11.9707844187
 C        -0.0325767960        0.9172786279      -11.3306166632
 C        -0.4196817531        0.0986949647      -12.6115987825
 C        -1.5484891942       -0.9341281092      -12.3429341511
 O        -2.3692457390       -0.6659120524      -11.5057987093
 C        -1.5386860908       -2.2674069560      -13.0768478189
 C        -0.6334508924       -3.2400717660      -12.1195748356
 O         0.5193668487       -3.5317988276      -12.3858439087
 C        -1.2816590245       -3.7655441352      -10.9339608147
 C        -0.2778604032       -4.2751448532       -9.8589926954
 C        -0.7181364435       -5.2511984186       -8.7027237228
 O        -1.7246674610       -5.9677387709       -8.9133220882
 C         0.1616321714       -5.4248496619       -7.4169827798
 C         1.1277717150       -6.5628398683       -7.6035365990
 O         0.8073538385       -7.5921813822       -8.1691997548
 C         2.4023318803       -6.3886191097       -6.7109253027
 C         3.2776142201       -7.7239685493       -6.7481067395
 C         2.8135210718       -8.8380498841       -5.7756708713
 O         1.7962627972       -8.6052942124       -5.1895574655
 C         3.6158880505      -10.2232943311       -5.6372278183
 C         2.9603269676      -11.1782918473       -6.7553873367
 O         3.4483882971      -11.2491156551       -7.8815339707
 C         1.6192851994      -11.7511471790       -6.2685350790
 C         0.6625083478      -12.3857458352       -7.3352137644
 C        -0.3987498367      -11.3507666762       -7.9139183829
 O        -0.9680324180      -10.4805044337       -7.3104883916
 C        -0.9260657480      -11.5101025839       -9.5379162507
 C        -2.3407468319      -10.8588629511       -9.3417294187
 O        -2.4968406775       -9.6732095382       -9.6682244361
 C        -3.3634209598      -11.6370735007       -8.5571167542
 C        -4.6159501864      -10.7785548413       -8.0277467503
 C        -4.4799122845       -9.2707419317       -7.7532742862
 O        -3.5280179439       -8.7356033089       -7.2525695531
 C        -5.7876668001       -8.3797667201       -8.1766604464
 C        -5.9624746846       -8.5677578332       -9.6602291908
 O        -6.8089080386       -9.3257687829      -10.1677616224
 C        -5.0422768402       -7.6053791021      -10.4822023673
 C        -4.8107425547       -8.1845730539      -11.9078310781
 C        -4.7213289030       -7.1552937287      -12.9386955570
 O        -3.6273550642       -6.8824820343      -13.3994168612
 C        -6.0601606685       -6.4023564544      -13.4338212420
 C        -5.9141695343       -4.9209810668      -13.0279241638
 O        -5.6234884621       -4.6265357789      -11.8624559528
 C        -6.4016590363       -3.8242236988      -14.0308777072
 C        -6.6714292015       -2.4244674075      -13.4253116472
 C        -8.1925040109       -2.2835137131      -13.1718672921
 O        -8.6170066551       -2.5636689031      -12.0539952234
 C        -9.1920224846       -1.5917723397      -14.2221526729
 C        -9.4401670383       -0.1923520854      -13.2373052597
 O        -8.6867060416        0.7106939927      -13.4159583123
 C       -10.4562398469       -0.3691999619      -12.0847123776
 C        -8.4231887841       -1.1535331421      -15.5045034294
 C       -10.4011256098       -2.4377187595      -14.4093687913
 C        -6.0418624023       -6.6122802363      -14.9633895228
 C        -7.4233936426       -6.9378970965      -12.8607162625
 C        -7.0840992911       -8.7891418623       -7.4426768770
 C        -5.4848064838       -6.8526616356       -7.8288741358
 C         0.1372017428      -10.7585695886      -10.4434154607
 C        -1.0678738426      -13.0231584684       -9.9399868014
 C         5.0510027506      -10.0333181400       -6.0783810107
 C         3.3047442534      -10.8418744810       -4.2019004051
 C         0.9590297384       -4.0882007981       -7.1369226291
 C        -0.7039779100       -5.7455719393       -6.1212266516
 C        -3.0405962845       -2.7309919596      -13.1258052208
 C        -0.8667108452       -2.1661941561      -14.4322032834
 C         0.3552939120        4.4308947615      -10.1375445521
 C         0.5103784488        2.4077036816       -8.7126362213
 C        -5.7555384437        4.3829984612       -4.3137390809
 C        -6.6888436748        2.7853746230       -6.0269405103
 C        -3.2108907268       10.6906721692       -7.4501973604
 C        -5.6534911756       10.0148997891       -8.1106614284
 C        -1.5430737247        8.0056837996      -14.7870734673
 C        -3.0633396772        9.8633813032      -14.3036140798
 C        -7.4181291473        3.8977920220      -13.2938337526
 C        -6.3705213162        3.3300844361      -10.8088514559
 H        -5.6574464116        1.0068055451      -13.9182111639
 H        -6.5944345755        1.2475864765      -12.3682742705
 H        -4.9362855598        0.8149657207      -12.2498390855
 H        -7.1396058404        6.5781753572      -13.2835568813
 H        -5.8637045500        5.8906542313      -14.2856891343
 H        -5.2066734732        8.0562185850      -12.3176959137
 H        -5.6401214830        8.5596919438      -13.8491595631
 H        -2.2567193421       10.4011027016      -11.9484935137
 H        -0.6424929371        9.9194046810      -11.6164400255
 H        -1.5277999004       10.1399218734       -9.3790777432
 H        -1.7914777164        8.4870247974       -9.7304616986
 H        -4.2159871935        6.3553942697       -8.5241043778
 H        -5.7512237329        7.4057625888       -8.3894493284
 H        -5.6119756689        6.9249140021       -5.8036823384
 H        -4.0781385602        6.2522969897       -6.1304163599
 H        -4.3166902073        3.2503118441       -8.1397379192
 H        -4.0492091364        1.6486992025       -7.4357382658
 H        -2.0829912175        1.6361417731       -7.9567575575
 H        -1.7198064023        2.8440962030       -6.8163575015
 H        -0.5054491540        0.3326518496      -10.4616255921
 H         1.0914796591        1.0772431452      -11.2679086292
 H         0.5380539954       -0.2765728839      -12.9715270629
 H        -0.6549503810        0.6809733797      -13.5100058562
 H        -1.8798535100       -4.6017074408      -11.2550876558
 H        -1.9728930894       -3.0349465661      -10.4557878296
 H         0.3332323579       -3.3879869882       -9.5714983114
 H         0.4644343820       -4.8791132967      -10.3493827043
 H         1.9723441888       -6.4053625701       -5.7219301570
 H         2.8895567417       -5.5075305158       -7.0512386502
 H         4.3217169415       -7.4178700662       -6.7065011684
 H         3.2587065611       -8.2258334044       -7.7240966778
 H         1.0449818318      -10.9230377165       -5.8520733144
 H         1.7788090025      -12.4113038063       -5.4206894267
 H         0.0926824725      -13.2548416105       -7.1333784539
 H         1.3238132245      -12.8693762822       -8.1082628533
 H        -2.9509791129      -12.2606037215       -7.7630255060
 H        -3.7775659357      -12.4515311753       -9.2144784714
 H        -4.9532897210      -11.3204594230       -7.0118188399
 H        -5.5192341633      -10.9277761065       -8.6380473217
 H        -3.9911821350       -7.5509335556      -10.0227591402
 H        -5.5019355553       -6.5559618656      -10.6004945435
 H        -5.5761852795       -8.9380336141      -12.1230724354
 H        -3.8614551673       -8.6690259952      -11.8584790898
 H        -7.1667251605       -4.2730543228      -14.5982794814
 H        -5.6426269244       -3.6792979564      -14.7204557625
 H        -6.2940102663       -1.5611414709      -13.9947921582
 H        -6.2857121708       -2.3836727356      -12.3970484250
 H       -11.3621463766       -0.8035141663      -12.5026939000
 H       -10.8458999036        0.5585605719      -11.5634978751
 H        -9.9507303168       -1.0428702059      -11.3720458812
 H        -7.5533402937       -0.5308728973      -15.3267255247
 H        -9.0887998823       -0.4202650272      -16.0653892397
 H        -8.1455141738       -1.9730380622      -16.2423677158
 H       -11.2622519814       -1.8187956932      -14.7926891845
 H       -10.7031567250       -2.8878851631      -13.3851419536
 H       -10.3001539345       -3.2439870493      -15.1528632412
 H        -6.9663009913       -6.3382410705      -15.4605339539
 H        -5.7830275060       -7.6700375018      -15.2143608382
 H        -5.1640702713       -6.1980181013      -15.5844432813
 H        -7.8895439744       -6.2116667311      -12.1605217434
 H        -7.4486307038       -7.9360837288      -12.4002832009
 H        -8.0802245724       -6.9810778785      -13.6446116228
 H        -8.0031065619       -8.7976636799       -8.0691253618
 H        -7.3139515172       -8.1331986390       -6.6109059716
 H        -6.9718179466       -9.8207561554       -7.0668227054
 H        -4.4781628272       -6.5006475074       -7.9435567815
 H        -5.7512667597       -6.6455995351       -6.7863715391
 H        -6.1245451960       -6.1844552306       -8.3986316406
 H         1.1989640042      -11.0415285325      -10.2103342041
 H         0.0751693878       -9.7377250392      -10.2125766236
 H         0.0033621117      -10.8263114053      -11.5276491002
 H        -1.9137677804      -13.1989424782      -10.5994391234
 H        -1.2209146717      -13.6143939368       -9.0127343145
 H        -0.2461396610      -13.5313045452      -10.4348820759
 H         5.1011413609       -9.9398975053       -7.1836800916
 H         5.6224974472      -10.9100382679       -5.7220669875
 H         5.4068467014       -9.0857662981       -5.6167786010
 H         3.1258838860      -11.9428817489       -4.3066680986
 H         2.4280331282      -10.4736946274       -3.7205220613
 H         4.1801232639      -10.7933105621       -3.5618919456
 H         1.1916359876       -4.1207781249       -6.0699197835
 H         0.2409333484       -3.2648762119       -7.2763847181
 H         1.8172907897       -3.8581673417       -7.6995544889
 H        -1.3446829338       -6.5226582102       -6.4492103635
 H        -1.2051072891       -4.8696105048       -5.7207566198
 H         0.0339145346       -6.0862082178       -5.4067098358
 H        -3.5545656394       -1.8753750707      -13.4948563997
 H        -3.4166791088       -2.8674767226      -12.0833956221
 H        -3.1909197906       -3.5485952678      -13.7441453716
 H         0.1077940238       -1.8039697448      -14.1472832982
 H        -1.4766391489       -1.5536377421      -15.0739964352
 H        -0.8265948670       -3.0215100802      -14.9646869254
 H         0.3946767995        4.9518676125       -9.1953485622
 H        -0.0774596480        4.8930154709      -11.0019989462
 H         1.3790844794        4.0902220819      -10.3755270428
 H         1.4923268480        2.1018211847       -9.0688530541
 H         0.1808504103        1.4736984256       -8.2948755332
 H         0.6479070451        2.9572689750       -7.7312953057
 H        -4.8928015118        5.0770224083       -4.2668374172
 H        -5.8728937626        3.5918886693       -3.5575789782
 H        -6.7259091469        4.8397113513       -4.1700313202
 H        -6.7198039012        2.4395539492       -7.1009863503
 H        -7.6828227655        3.1550878198       -5.6947586043
 H        -6.6195612625        1.8563557982       -5.4970787692
 H        -2.2195908501       10.3102250856       -7.3451468566
 H        -3.5526682230       10.7157747086       -6.4066522573
 H        -3.0755646991       11.7578705024       -7.7878449840
 H        -6.2715644773        9.2955523755       -8.6271246485
 H        -5.9198190230       11.0592740091       -8.4178764282
 H        -5.8156653612        9.9046759694       -6.9920035243
 H        -0.8001743604        8.7911731220      -14.9639520548
 H        -1.8991282879        7.6253640372      -15.8209799272
 H        -0.9230235390        7.2261592161      -14.2607015377
 H        -3.8623888377       10.4000332442      -13.7576202921
 H        -3.2983730864        9.7042569125      -15.3833553858
 H        -2.2336858279       10.5506708997      -14.3557199421
 H        -7.2656563028        4.3902351893      -14.2285619000
 H        -8.2619037435        4.3690813448      -12.8148078931
 H        -7.8329772236        2.9372315968      -13.4753396135
 H        -6.1660754495        4.2487501083      -10.1509686217
 H        -5.7202754132        2.4693235035      -10.6941468943
 H        -7.4705144239        3.1754180731      -10.6781414440
 Na       -2.5609056424        4.9351043526      -12.3281409377
 Na       -1.5332339453       -8.2112901391       -8.3107267345
