232

 C        -5.6504770667        1.3835179367      -13.1375200807
 C        -5.0898737929        2.8144002419      -12.9228102891
 O        -3.9573892067        3.1364121325      -13.2060653463
 C        -6.1811543277        3.8674849682      -12.3279018520
 C        -5.4783641856        5.3433715983      -12.4023802567
 O        -4.6651019336        5.6307010693      -11.6097335124
 C        -6.0049262437        6.4071960422      -13.3079628907
 C        -5.0661084242        7.5875438784      -13.3489189412
 C        -3.7109224450        7.2969656475      -13.8929038119
 O        -3.3779945161        6.2055817427      -14.2528940390
 C        -2.6075958151        8.4268794542      -13.8803041517
 C        -2.1091473544        8.3798167444      -12.4132735873
 O        -1.7523404663        7.2847478100      -11.9246496428
 C        -1.8350944579        9.6582910058      -11.5502013740
 C        -2.0321307691        9.4054563914      -10.0655388570
 C        -3.5267538318        9.8912969766       -9.6836765807
 O        -4.2846816488       10.0880767937      -10.6249412365
 C        -4.0175842373        9.7272360835       -8.2424830996
 C        -3.7643384068        8.2580441060       -7.9717598216
 O        -2.5662646046        8.0069579886       -7.8180808095
 C        -4.9175673571        7.1855956750       -7.9602535877
 C        -5.0378270206        6.4215165177       -6.6548402260
 C        -5.8738708468        5.0786746780       -6.7143131778
 O        -6.6952879675        4.9045636226       -7.6204733865
 C        -5.5463596884        3.9660757201       -5.7858789237
 C        -4.0025355783        3.5454641508       -6.0086724191
 O        -3.1737720680        3.6804276119       -5.1736511948
 C        -3.7148416767        2.7750076442       -7.3395324474
 C        -2.2215032819        2.7550358387       -7.7377101466
 C        -1.8148177363        3.4735509583       -9.0423699089
 O        -2.5510900380        4.3206697697       -9.6077117450
 C        -0.3274349831        3.1576809429       -9.6842270438
 C        -0.7498509553        2.3362232736      -11.0542148724
 O        -1.1973298356        2.9257340707      -12.0197694994
 C         0.0349169221        0.8957116241      -11.2807868139
 C        -0.4903730754        0.1617465796      -12.5770656547
 C        -1.4914971035       -0.9293830588      -12.2910196316
 O        -2.4613855854       -0.6530631354      -11.5436046084
 C        -1.5122000773       -2.3641161134      -13.0163188719
 C        -0.6431196167       -3.3926506674      -12.1498409885
 O         0.4994758591       -3.6020003541      -12.4495466211
 C        -1.3332652771       -3.8472409526      -10.7966183029
 C        -0.3170148422       -4.2547488663       -9.7661797851
 C        -0.8404019941       -5.2148230635       -8.7558253471
 O        -1.8165500042       -5.9256143127       -8.8626553168
 C         0.0541592091       -5.3294897377       -7.4737350159
 C         1.0874645916       -6.6448074836       -7.5866639266
 O         0.7463452078       -7.5873635105       -8.2528508779
 C         2.3943308252       -6.5370344557       -6.7834173477
 C         3.3094682231       -7.7501454431       -6.7623998787
 C         2.8263962021       -8.7909074372       -5.7621826812
 O         1.7566500749       -8.6683418100       -5.1650598414
 C         3.5458088232      -10.1271453617       -5.7085965112
 C         2.6938873114      -11.0027502031       -6.6843684328
 O         3.2247112032      -11.4303945062       -7.6831163550
 C         1.2945735534      -11.6649901178       -6.3041099871
 C         0.5065128629      -12.3127965499       -7.5048417598
 C        -0.4710392888      -11.3780306351       -8.0376883089
 O        -0.8134947194      -10.4736633076       -7.2820865575
 C        -0.9639374137      -11.6190119256       -9.4754743857
 C        -2.3587931288      -10.9391537925       -9.4534307879
 O        -2.5255021464       -9.7756662946       -9.7406584672
 C        -3.4428580992      -11.6719691428       -8.6005018330
 C        -4.6154503861      -10.7659648975       -8.1500196813
 C        -4.4977059041       -9.2470486736       -7.6356069962
 O        -3.4683454741       -8.6888730669       -7.2758317366
 C        -5.7161252559       -8.3750620938       -7.9742381053
 C        -5.8250815987       -8.5551060807       -9.5662119024
 O        -6.5621186605       -9.3475860961      -10.0128447367
 C        -4.9571731901       -7.7639830852      -10.5745243902
 C        -4.8429751300       -8.4516492930      -11.9903078777
 C        -4.6838754975       -7.2142390274      -12.9532021456
 O        -3.6627171958       -6.7564768969      -13.4173646085
 C        -6.0045624263       -6.4637299050      -13.4166594912
 C        -6.0345352688       -4.9140262780      -13.0060656156
 O        -5.6767306880       -4.5593107946      -11.8746632415
 C        -6.2970605002       -3.8972656933      -14.0936305004
 C        -6.6632483818       -2.5630587284      -13.4335066713
 C        -8.1498661396       -2.3983321198      -13.0910880913
 O        -8.6659337264       -2.7973214248      -12.0643556922
 C        -9.1364671705       -1.5359919076      -14.0646763416
 C        -9.3766393264       -0.3298489105      -13.2096014956
 O        -8.6335011121        0.6233149436      -13.2945668532
 C       -10.3789771064       -0.2672572196      -12.1550998745
 C        -8.3892420331       -1.1154307597      -15.3120626029
 C       -10.3806995580       -2.4415779439      -14.3335649041
 C        -5.9244916283       -6.5597186571      -14.9881968791
 C        -7.3418391508       -7.0436982723      -12.9369186530
 C        -7.0570746276       -8.8047329181       -7.3840345726
 C        -5.3782799096       -6.8883947776       -7.6439513240
 C        -0.0666702898      -10.8255769614      -10.5494130983
 C        -0.8119282536      -13.0951486991       -9.8853928751
 C         5.0282581741      -10.0774507969       -6.1498002353
 C         3.4169640043      -10.7903360306       -4.3251884369
 C         0.7496031878       -4.0034177601       -7.0758285741
 C        -0.7818679404       -5.7787333641       -6.2404991112
 C        -3.1182345974       -2.6812195720      -13.0454620300
 C        -0.9572059615       -2.2525338784      -14.4540631531
 C         0.2177924681        4.5202476830      -10.1850064336
 C         0.5708922044        2.3777857179       -8.7485664810
 C        -5.6566089225        4.4319757863       -4.3530075673
 C        -6.6949978426        2.9304765321       -6.0397583506
 C        -3.1855527754       10.6213233015       -7.3496139364
 C        -5.4811953466       10.1517524916       -8.1761606794
 C        -1.5097871027        7.9504986875      -14.8573760776
 C        -3.1890618749        9.8069670839      -14.1924438793
 C        -7.4933063865        3.9006734522      -13.0895687164
 C        -6.5242434269        3.3696015927      -10.9151412337
 H        -5.3760296934        1.1020511298      -14.1718370147
 H        -6.7452861534        1.2584852940      -12.8947036720
 H        -5.2650805383        0.6998856917      -12.4075180576
 H        -7.0249455582        6.6710389578      -12.9687791083
 H        -6.1023263125        6.1048811692      -14.3779583137
 H        -4.9512012639        8.0754632736      -12.3668857095
 H        -5.5508472175        8.4243676684      -13.9112578962
 H        -2.4140918644       10.4712870453      -12.0092215423
 H        -0.8329731712        9.8934230109      -11.7383407978
 H        -1.3248715257        9.9838475679       -9.5344006438
 H        -1.7861232624        8.3615438480       -9.8992405148
 H        -4.7767162998        6.5266147010       -8.7887964630
 H        -5.9211929426        7.6949132887       -8.0198526228
 H        -5.7249175902        7.0022967478       -5.9482313829
 H        -4.1530668382        6.3464951098       -6.0696786410
 H        -4.0509708098        3.5220819101       -8.0494388783
 H        -4.2737585947        1.8554800070       -7.5418969085
 H        -1.8929612721        1.7320958622       -7.7891739551
 H        -1.6124855792        3.2312992139       -6.9217627899
 H        -0.0448973343        0.2865696951      -10.4454505902
 H         1.0502803400        1.3156817700      -11.5014654498
 H         0.3841795780       -0.1686576141      -13.1100584919
 H        -0.8749269574        0.8306399148      -13.3171689670
 H        -2.0157822170       -4.6301213816      -10.8315574889
 H        -1.9308623205       -2.9806958188      -10.3393069745
 H         0.0614073637       -3.2750154342       -9.2026852863
 H         0.5829694259       -4.6099013070      -10.1402690758
 H         2.0878261318       -6.4319514127       -5.7138253382
 H         2.8681257620       -5.6488723880       -7.3111921964
 H         4.2687054128       -7.2662218661       -6.4517181797
 H         3.5923251145       -8.2232139146       -7.7057631870
 H         0.5801700085      -11.0792091779       -5.7302379528
 H         1.5934802795      -12.4014784812       -5.6850330474
 H        -0.0592542949      -13.1705054489       -7.3466409326
 H         1.2469564080      -12.7035545261       -8.1736683074
 H        -3.0095352158      -12.1012778106       -7.6624372132
 H        -3.8600538150      -12.5586925967       -9.0432019655
 H        -5.1034602064      -11.3956415096       -7.4195121429
 H        -5.3824830178      -10.6896784192       -8.9035489752
 H        -3.9129934991       -7.5422449068      -10.2395604144
 H        -5.4428148264       -6.8365505033      -10.7916128546
 H        -5.6958251073       -9.0167365096      -12.2032635973
 H        -3.9613912875       -9.1032672990      -11.9484234133
 H        -7.0144131665       -4.2274466624      -14.7784304876
 H        -5.4176504003       -3.7940215614      -14.6852449293
 H        -6.4488410338       -1.6563741777      -14.1091795673
 H        -6.2452443510       -2.3689094949      -12.4699831054
 H       -11.4282253171       -0.4216878139      -12.5314632220
 H       -10.4373064861        0.7467784913      -11.8608717023
 H       -10.0783057713       -0.8592857361      -11.2478282591
 H        -7.4320536541       -0.6383139314      -15.2947466983
 H        -9.0478151700       -0.3983263369      -15.9171208707
 H        -8.3827486057       -2.0487155927      -15.9524606173
 H       -10.8980541630       -2.0521851376      -15.1879959175
 H       -11.1030721048       -2.4198633160      -13.4496157647
 H       -10.1667881810       -3.4950011476      -14.5970939340
 H        -6.7605897185       -6.1217383316      -15.5154438328
 H        -5.6324691614       -7.5386596869      -15.4681683257
 H        -5.0399171168       -6.0787335806      -15.3171725534
 H        -7.9280242199       -6.2943086853      -12.4412438258
 H        -7.2827661460       -7.8766722714      -12.2777101702
 H        -7.9630131166       -7.4325746691      -13.8019424713
 H        -7.7644629968       -8.6084725651       -8.1743007590
 H        -7.4217906750       -8.3701432396       -6.4864291725
 H        -7.0827017232       -9.8854175070       -7.3199382575
 H        -4.4705560760       -6.4097365468       -8.0325748784
 H        -5.2742397250       -6.7655185675       -6.5654390118
 H        -6.1831850273       -6.3002894612       -7.9255178940
 H         0.9709531505      -11.1554224454      -10.5578625265
 H        -0.0825394342       -9.7626023540      -10.2420831820
 H        -0.4163155954      -10.8143450599      -11.5607971564
 H        -1.4109183561      -13.2144860698      -10.7480482650
 H        -1.0789556885      -13.9242198997       -9.2027058598
 H         0.1672915021      -13.2888126186      -10.2880296830
 H         5.1197271425      -10.3189258309       -7.1773620712
 H         5.5328619815      -10.8560704632       -5.6198287582
 H         5.4211605423       -9.0794369017       -5.9149638027
 H         3.4811561006      -11.9000284326       -4.3170714802
 H         2.4178741038      -10.5621309907       -3.8882087401
 H         4.2428427527      -10.4159738545       -3.6831481317
 H         1.1868131959       -4.2065383957       -6.1161147349
 H         0.0859004336       -3.1640709720       -6.9737050853
 H         1.5368347173       -3.7133088063       -7.7868446955
 H        -1.5050438642       -6.5405109627       -6.6557070306
 H        -1.1794403074       -4.9289026552       -5.7636280261
 H        -0.0268045367       -6.2525151482       -5.5118960985
 H        -3.6207541370       -1.8434272438      -13.4922834479
 H        -3.5043416882       -2.7496506593      -12.1013297204
 H        -3.2386191772       -3.6147190202      -13.6421098125
 H         0.1454115769       -2.0557195763      -14.2694389517
 H        -1.4711382761       -1.4724808279      -14.9508063051
 H        -1.1748900036       -3.1498740829      -15.0836334806
 H         0.3682546611        5.1385496086       -9.2884567443
 H        -0.5179049752        4.8262117278      -10.9044093705
 H         1.1314900306        4.3674952792      -10.6869923784
 H         1.6417730058        2.4471628819       -8.9567411758
 H         0.4432065937        1.2829888020       -8.5553942251
 H         0.5286680505        2.7088024603       -7.7348107936
 H        -4.7489168247        5.0289671981       -4.1092848643
 H        -5.9178315974        3.5286060929       -3.7764072045
 H        -6.5801823834        4.9225794297       -4.1772419625
 H        -6.6986062105        2.5867431454       -7.0524464724
 H        -7.6938302723        3.2194353235       -5.6934795121
 H        -6.5195341604        2.0235599215       -5.5071574754
 H        -2.1252545443       10.2971976938       -7.2477649023
 H        -3.5692185428       10.5878284509       -6.3412911141
 H        -3.1258797337       11.6577416326       -7.6518720706
 H        -6.0867916283        9.4939620326       -8.8011807246
 H        -5.6804477626       11.2124736383       -8.4544861779
 H        -5.7121128573       10.0285005564       -7.1464903947
 H        -1.0021918231        8.8049581061      -15.4649763373
 H        -1.8596295142        7.1997110836      -15.5905892965
 H        -0.6438605146        7.5432549415      -14.2601585989
 H        -3.7376740476       10.2214866411      -13.2907156791
 H        -3.8298973268        9.8283920170      -15.0101165706
 H        -2.4050700463       10.5510359349      -14.4204167994
 H        -7.3967273375        4.1409798314      -14.1303622591
 H        -8.2720221654        4.5685378451      -12.6763570955
 H        -7.9711546374        2.9386084082      -12.9875013888
 H        -6.4144657200        4.2713516512      -10.2313873059
 H        -5.8686813423        2.5119753429      -10.7596485476
 H        -7.6341596660        3.1715275907      -10.8624165618
 Na       -2.6831925445        5.0211045383      -12.2625086296
 Na       -1.4942845578       -8.1266739662       -8.1566095662
