232

 C        -5.5374698193        1.4442872541      -13.4145595461
 C        -5.1061856552        2.8603682379      -12.9849948371
 O        -3.9262819119        3.0587579691      -13.0235592097
 C        -6.1886959443        3.8734442694      -12.3539100612
 C        -5.5452990255        5.3377087947      -12.3738186289
 O        -4.5889583954        5.6023635383      -11.6342754742
 C        -6.0509534635        6.4283236576      -13.3552810806
 C        -5.0711002534        7.5788124576      -13.4493255573
 C        -3.6598036836        7.2055668295      -13.9376997844
 O        -3.3006311706        6.0753130526      -14.1853661996
 C        -2.6237607975        8.4022228260      -13.9494221836
 C        -2.0271854838        8.3807413405      -12.4426176757
 O        -1.8371531905        7.2432222145      -11.9418773017
 C        -1.8003182453        9.6816681524      -11.7017737832
 C        -2.0906074763        9.4709254303      -10.1907447579
 C        -3.5004429504        9.8437625208       -9.7405544213
 O        -4.3431542995       10.2123888953      -10.5201879436
 C        -3.9699092943        9.7626447573       -8.1861321341
 C        -3.8022043444        8.2635497486       -7.8504902723
 O        -2.6874732569        7.7708064668       -7.7588132341
 C        -4.8927592194        7.2528995281       -7.9496384004
 C        -5.0379789775        6.4811364440       -6.6385469436
 C        -5.7871457977        5.1081648264       -6.8328612379
 O        -6.4334545810        4.9222884838       -7.8478978475
 C        -5.4441457831        4.0091393447       -5.7470596697
 C        -4.0358617339        3.6136261027       -6.0394600272
 O        -3.0877201920        3.8818204233       -5.3354947333
 C        -3.7194072296        3.0311486414       -7.4792114335
 C        -2.1463881291        2.9558652545       -7.7296872302
 C        -1.8186914078        3.4442040076       -9.1103416087
 O        -2.5417710850        4.2913797491       -9.5991361090
 C        -0.4071075990        3.1425079089       -9.7781595108
 C        -0.5523721873        2.4016205087      -11.1606734303
 O        -1.3338606279        2.8599085074      -11.9685053584
 C         0.0177168935        0.9910037535      -11.2768905093
 C        -0.5068640871        0.2231106351      -12.5184623869
 C        -1.5437204225       -0.8587124707      -12.2071055324
 O        -2.4915589996       -0.6472640009      -11.4614681046
 C        -1.5181624764       -2.2766362282      -12.9734806024
 C        -0.7689594986       -3.2780186722      -12.1139081451
 O         0.3191396843       -3.7001550349      -12.4499677310
 C        -1.4433627378       -3.8633026629      -10.8400832765
 C        -0.3707701108       -4.1996613965       -9.7358480843
 C        -0.8333657575       -5.1885288356       -8.7025069581
 O        -1.8109165213       -5.8407713815       -8.8987466854
 C         0.0425497333       -5.4402770892       -7.3135593172
 C         1.0744516836       -6.5966967050       -7.6381459624
 O         0.7363681000       -7.5765248514       -8.2791287612
 C         2.4173574845       -6.4654706275       -6.9005362385
 C         3.2480413880       -7.7226580437       -6.7533369919
 C         2.6931851549       -8.7967729910       -5.8168374719
 O         1.7058576840       -8.6049942122       -5.1096185084
 C         3.4123814921      -10.1904624645       -5.7466066331
 C         2.5674637636      -11.2366038384       -6.6611788962
 O         2.9854374451      -11.5741692119       -7.7337032173
 C         1.2286294005      -11.6715587657       -6.2131434069
 C         0.6326750062      -12.2743828113       -7.4155519984
 C        -0.3758683440      -11.3144135532       -8.0839814218
 O        -0.7696137822      -10.2776226170       -7.5304990306
 C        -0.9974038700      -11.6207168485       -9.4979200935
 C        -2.3935359163      -10.9658516951       -9.4113524162
 O        -2.5715719792       -9.8698677614       -9.9360524210
 C        -3.5029796312      -11.6180893121       -8.5087832813
 C        -4.7028447801      -10.7562163115       -8.1222176184
 C        -4.4346269022       -9.2455175074       -7.8131276310
 O        -3.4060913992       -8.8817855025       -7.1962642801
 C        -5.6916658618       -8.3484234461       -8.0265268250
 C        -5.7292282833       -8.5056693179       -9.6570844717
 O        -6.4666203673       -9.4577997789       -9.8841661482
 C        -4.8034754263       -7.7910002568      -10.5836492158
 C        -4.7532550776       -8.3512056920      -12.0283993065
 C        -4.7470169358       -7.2052372157      -13.0203922367
 O        -3.6369286228       -6.8023263821      -13.2791637983
 C        -5.9935184364       -6.4782474907      -13.5236895944
 C        -5.9601871337       -4.9692846028      -13.0159470760
 O        -5.7433074185       -4.6878286482      -11.8876426775
 C        -6.2780395891       -3.9142340689      -14.0886175484
 C        -6.6193817291       -2.6121808397      -13.3780439780
 C        -8.1408738488       -2.5130637651      -12.9807777932
 O        -8.6247312045       -3.1225654348      -12.0757409038
 C        -9.0376211942       -1.6177409875      -13.9567233872
 C        -9.3070930330       -0.2341983755      -13.0881986905
 O        -8.4781950093        0.6631653186      -13.2966142188
 C       -10.5364607721       -0.2040649890      -12.0818678463
 C        -8.4488808368       -1.1501542854      -15.3010552891
 C       -10.3431732208       -2.3977725875      -14.2749857040
 C        -5.8701234055       -6.5497853101      -15.0338328988
 C        -7.3590447175       -7.1569637966      -13.0276711642
 C        -6.9694560448       -8.8651860603       -7.3237875758
 C        -5.3254545429       -6.9522417105       -7.4424056335
 C        -0.2856136154      -10.7834494904      -10.5624469759
 C        -0.7879979922      -13.1016460665       -9.8445998269
 C         4.9679374161      -10.1566681918       -6.2233898384
 C         3.5196967209      -10.6843333484       -4.2844286917
 C         0.6670235913       -4.0428335916       -6.9956274186
 C        -1.0171960237       -5.8479946359       -6.1940172282
 C        -3.0098699795       -2.8006773730      -13.0575059873
 C        -1.0495125917       -2.3286936178      -14.4301140219
 C         0.1007129177        4.5527033944      -10.1358653343
 C         0.5081677339        2.4552112999       -8.8657711501
 C        -5.5610509781        4.5546882027       -4.1720521663
 C        -6.4762747543        2.8903338775       -6.0082952220
 C        -3.1241261303       10.6071229778       -7.1990162227
 C        -5.4408225633       10.4108146573       -8.2503533371
 C        -1.4161980705        8.0520498739      -14.9013418959
 C        -3.3627056268        9.7609130208      -14.2119767751
 C        -7.5636515564        3.8789224349      -13.1072274832
 C        -6.5050205892        3.5261864212      -10.8586842332
 H        -4.9742425110        1.2720243263      -14.3310226845
 H        -6.5685158637        1.1941944111      -13.4348518426
 H        -5.2520064769        0.7841944600      -12.6099376129
 H        -7.0126349315        6.7428812561      -12.9217363580
 H        -6.2609584869        6.1425837087      -14.4163140634
 H        -4.8844192064        7.9878460842      -12.3952587182
 H        -5.5135007311        8.4381391199      -13.9045732333
 H        -2.4045199264       10.3763030251      -12.2702965915
 H        -0.7656124431       10.0191850052      -11.8474227055
 H        -1.3850482687       10.1748882343       -9.6113215935
 H        -1.8320281050        8.4430624114       -9.9011098751
 H        -4.6742050700        6.5497459320       -8.7035128267
 H        -5.8842067803        7.7804141206       -8.1779216756
 H        -5.2486695002        7.0088442190       -5.7148469290
 H        -4.0158876221        6.1026122602       -6.4610845654
 H        -4.2114702318        3.4131112863       -8.3833509712
 H        -4.0462170201        2.0009081685       -7.3754580767
 H        -1.9300088123        1.8374157564       -7.6514432567
 H        -1.5558764894        3.4902240384       -7.0094709454
 H        -0.3310960972        0.5330149978      -10.3987210514
 H         1.0462857953        1.0926459625      -11.3656515160
 H         0.4005609152       -0.0910558331      -13.0273675665
 H        -0.9169458263        0.8862351316      -13.2627914372
 H        -1.8880294154       -4.9006599969      -11.0050083537
 H        -2.2465111525       -3.2936037406      -10.4282499177
 H        -0.0383569561       -3.3238899660       -9.2631611498
 H         0.6093392158       -4.5681907354      -10.1915018931
 H         2.1210529361       -6.1074065424       -5.8756615898
 H         2.9902755490       -5.7519272941       -7.5789349798
 H         4.2302282954       -7.3259253416       -6.4510447067
 H         3.4768520238       -8.1449319653       -7.7495794343
 H         0.5900087280      -10.8571324472       -5.9364731867
 H         1.2223819922      -12.3613950667       -5.3210404812
 H         0.1167302307      -13.2739117033       -7.3182644801
 H         1.4498909894      -12.5386946415       -8.0066354629
 H        -3.0999333441      -12.0597411881       -7.5791029177
 H        -3.9320271915      -12.4736656703       -9.0233635760
 H        -5.1945208119      -11.2063617058       -7.3697741137
 H        -5.4039143923      -10.7264042734       -8.9536794755
 H        -3.8762024091       -7.7283975649      -10.1392851554
 H        -5.1480796651       -6.8130883973      -10.6939408671
 H        -5.6044347179       -9.0211062168      -12.1538069805
 H        -3.8161444114       -8.9056890665      -12.1255412711
 H        -7.1182297591       -4.1608194966      -14.7855817445
 H        -5.4236072190       -3.7753766733      -14.8166890037
 H        -6.4548871318       -1.7848508188      -14.0470578209
 H        -6.1979476863       -2.3674085074      -12.3879473481
 H       -11.5027553010       -0.1983945238      -12.5759138386
 H       -10.5755435413        0.7179148240      -11.5243098616
 H       -10.3709954228       -0.9758395716      -11.3437730138
 H        -7.5970643059       -0.3963805385      -15.2566490588
 H        -9.2269832249       -0.6928114604      -15.8655778095
 H        -8.1706070555       -1.9699752475      -15.9214872960
 H       -10.5925675916       -2.1695820718      -15.3052011192
 H       -11.1480756812       -2.1358848304      -13.7035174020
 H       -10.1896859819       -3.4793618244      -14.2838580351
 H        -6.6328917675       -6.0171816323      -15.6007832751
 H        -5.7335311241       -7.4882680680      -15.4607461136
 H        -4.9460535879       -6.1432127898      -15.2821679593
 H        -8.0873326372       -6.4311393038      -12.7284914908
 H        -7.1120509147       -7.6838796149      -12.1101175239
 H        -7.8365541374       -7.9716427119      -13.6653480560
 H        -7.7515074707       -8.3377547564       -7.7896477377
 H        -7.0029034297       -8.6846299769       -6.2363541772
 H        -7.1919841287       -9.8839278965       -7.4987317657
 H        -4.5780489951       -6.3876308595       -7.9995104668
 H        -4.8435235399       -7.0113973598       -6.4730118709
 H        -6.1823237894       -6.2705479509       -7.3885187875
 H         0.6779551039      -11.1976763159      -10.6939891711
 H        -0.2137516385       -9.6748714736      -10.3362971585
 H        -0.7439150173      -10.8062894933      -11.5532149786
 H        -0.9740047523      -13.3899837795      -10.8962492994
 H        -1.4055141867      -13.7735882444       -9.2738389705
 H         0.2638193185      -13.3164250682       -9.7215299084
 H         4.9514927295      -10.3866279166       -7.2785489828
 H         5.4777408489      -10.9904309540       -5.8295168293
 H         5.4096547322       -9.2302392208       -5.9770810804
 H         4.0539070254      -11.6201651416       -4.1251972998
 H         2.4793894969      -10.8298647188       -3.8747529465
 H         4.0544161927       -9.9000659307       -3.7018915526
 H         1.3240908527       -3.9929679454       -6.1414615847
 H        -0.0660553232       -3.2684266373       -6.8821374869
 H         1.2448520201       -3.8408894382       -7.9202527804
 H        -1.7563003518       -6.5564788805       -6.6566757293
 H        -1.3828481931       -4.8054029499       -5.9867618204
 H        -0.5434476810       -6.2076664333       -5.2773857260
 H        -3.6335988049       -2.1614978252      -13.6925950811
 H        -3.5220365599       -2.7552845508      -12.0940363357
 H        -2.8680543227       -3.8210792213      -13.4350559819
 H         0.0325581813       -2.4576227428      -14.4076785806
 H        -1.4268311997       -1.4381076993      -15.0620925142
 H        -1.5757559734       -3.2684389900      -14.8731356813
 H         0.4835789117        4.9822642215       -9.2418469400
 H        -0.6654244531        5.0702127627      -10.7190402607
 H         0.9240251293        4.3388172828      -10.7780397488
 H         1.5246585671        2.7073523021       -9.2261667245
 H         0.5507057960        1.3944216299       -8.6278780036
 H         0.6146355517        2.8310717675       -7.8750398657
 H        -4.7054138279        5.1422103116       -3.9615424865
 H        -5.7629353699        3.7038124993       -3.5753325508
 H        -6.5250021593        5.0574323313       -4.0014346438
 H        -6.3585515142        2.4927355717       -6.9635668927
 H        -7.4809261390        3.1224534479       -5.8290310932
 H        -6.2922734645        2.0074149265       -5.3659705444
 H        -2.0621281798       10.2879034268       -7.1044051991
 H        -3.5406759344       10.4737986727       -6.1959118613
 H        -3.0643872865       11.6367151954       -7.4037554297
 H        -5.9522113479        9.9986848917       -9.1244028887
 H        -5.4173087274       11.4583285112       -8.3095517337
 H        -5.9102655372       10.1855271413       -7.3286362788
 H        -1.1854638759        8.8345004797      -15.6265412585
 H        -1.6669868709        7.1917493105      -15.4980205861
 H        -0.4613636317        7.8529109790      -14.3991449988
 H        -3.9238996791       10.0120931772      -13.3353928962
 H        -4.0856868317        9.8624541617      -15.0310414182
 H        -2.6294596602       10.5769283192      -14.3073601055
 H        -7.4724438547        3.9065727588      -14.2121291814
 H        -8.2757590865        4.6704749513      -12.8483366822
 H        -8.0944617296        2.9414196846      -12.8335259779
 H        -6.4823769675        4.3990779389      -10.3118230662
 H        -5.7593452986        2.7416909346      -10.6217390120
 H        -7.5249221518        3.2196813060      -10.7820400459
 Na       -2.6558424834        4.9793406849      -12.1282442696
 Na       -1.4603838319       -8.1821182545       -8.0602763684
