232

 C        -5.4575999786        1.7790136677      -13.7947680304
 C        -5.1215841633        2.9473594390      -12.9353644130
 O        -3.9504080931        3.1531178525      -12.6812875009
 C        -6.2260909573        3.8884676765      -12.3772837395
 C        -5.5772698728        5.3415255950      -12.4083216856
 O        -4.8751746761        5.6999521632      -11.5184629008
 C        -6.0753806133        6.2503824082      -13.5374699375
 C        -5.1265225717        7.4603520747      -13.7036838273
 C        -3.6891657693        7.1139288358      -13.9916000461
 O        -3.3055113521        5.9591104352      -14.1518507503
 C        -2.7091212242        8.3818691270      -13.9257974747
 C        -2.1296431921        8.2851269013      -12.4065977440
 O        -1.8620933360        7.2281426116      -11.8919847011
 C        -1.7634671336        9.7194330706      -11.6770401794
 C        -1.9647803556        9.6891870556      -10.1472406512
 C        -3.4389427704       10.0191755352       -9.7972345055
 O        -4.2009437049       10.3569456748      -10.6841988782
 C        -3.8800750409        9.8497790107       -8.3712157315
 C        -3.8693043698        8.3434105306       -7.9612725374
 O        -2.8061347326        7.8669967859       -7.5863000903
 C        -5.2156899339        7.5828981858       -7.7956784459
 C        -5.0659576367        6.5790712328       -6.6306481603
 C        -5.6237359131        5.1811565845       -6.9086487844
 O        -6.0252553428        4.8012506123       -7.9977520567
 C        -5.2603638687        4.0434676195       -5.7831894739
 C        -3.8137595420        3.8442327001       -6.1853919346
 O        -2.9582698881        4.2688983908       -5.4581376252
 C        -3.5824537154        3.1678870952       -7.4503355595
 C        -2.1284743885        3.1018989468       -7.8741657526
 C        -1.8106250255        3.6368767495       -9.1956139348
 O        -2.7119150339        4.1132734474       -9.8958580593
 C        -0.3687453323        3.3396341023       -9.8675982443
 C        -0.7226029003        2.4185835192      -11.1539534484
 O        -1.3389257753        2.8118043419      -12.1196383180
 C        -0.1952054471        0.9311446013      -11.2910250603
 C        -0.6292367382        0.1097115214      -12.5305905960
 C        -1.5793850879       -0.9096722611      -12.1246296301
 O        -2.3913028555       -0.6558737043      -11.2506987406
 C        -1.7321235363       -2.3391782621      -12.9010185838
 C        -0.8992570593       -3.3576487376      -12.0530248086
 O         0.2056055599       -3.6335010820      -12.4324439078
 C        -1.5711452430       -3.8832157546      -10.7123499108
 C        -0.5492611020       -4.1434663644       -9.6045319510
 C        -0.9079499223       -5.2966287203       -8.6214280346
 O        -1.7952672558       -6.0979270050       -9.0144292192
 C        -0.0195253092       -5.3816806002       -7.2189889302
 C         1.0054796045       -6.5388936940       -7.5137831956
 O         0.6471374303       -7.4749402341       -8.1614923320
 C         2.4435181689       -6.4710660948       -6.9483191113
 C         3.1147887008       -7.8580269596       -6.9997446254
 C         2.6677769190       -8.7740776616       -5.9035656899
 O         1.6815478902       -8.6056497961       -5.2100283696
 C         3.3460743244      -10.0869363032       -5.7911776502
 C         2.4941493283      -11.1210915254       -6.6328076014
 O         3.0201960822      -11.6747444428       -7.6068824198
 C         1.1803762298      -11.7450686156       -6.0840851714
 C         0.1154392955      -12.3182516949       -7.2085537206
 C        -0.2825486536      -11.1926635562       -8.1350493093
 O        -0.1759628612      -10.0358260318       -7.7460342283
 C        -1.1016762553      -11.5509485864       -9.5028142383
 C        -2.5941550298      -11.0068837425       -9.4001493635
 O        -2.9869221759      -10.0692192926      -10.0647034367
 C        -3.3369631657      -11.7864334344       -8.2976605638
 C        -4.6472127305      -11.0259115522       -8.0164275338
 C        -4.3897046791       -9.5468914735       -7.6498098288
 O        -3.3438041282       -9.2160791207       -7.1408951750
 C        -5.5310842073       -8.5125807078       -7.9449445940
 C        -5.6584548195       -8.5475520198       -9.5553341015
 O        -6.4894102376       -9.2318287842      -10.0528630424
 C        -4.7469640210       -7.5291498205      -10.4838340380
 C        -4.7303616473       -8.1534428845      -11.9323179763
 C        -4.6152518552       -7.1243669929      -13.0120394033
 O        -3.5094206595       -6.6787731058      -13.2750759290
 C        -5.9256283431       -6.5758484780      -13.6683481736
 C        -5.9726452760       -5.1443541310      -13.0731861023
 O        -5.7577585251       -5.0538869986      -11.8554963725
 C        -6.2321078068       -3.9030204634      -13.9183880378
 C        -6.5419868312       -2.6147770093      -13.1837665749
 C        -8.0747733527       -2.5855810152      -12.9654836783
 O        -8.6324081978       -3.4963837387      -12.3679068621
 C        -9.0114685835       -1.6079370604      -13.7696957646
 C        -9.3481010793       -0.2431232327      -12.9836243094
 O        -8.4690392122        0.5600939185      -13.1217089656
 C       -10.5771392985       -0.1215160059      -12.0381799019
 C        -8.3260885902       -1.2978012931      -15.1448519780
 C       -10.4445815098       -2.3629302762      -13.9755124196
 C        -5.8767545926       -6.7097147832      -15.2279661683
 C        -7.2539591765       -7.2802122460      -13.2685843346
 C        -6.8853980761       -8.9563152075       -7.1739425335
 C        -5.0844301450       -7.1080391828       -7.5998919885
 C        -0.2406195864      -10.8183929226      -10.5883614116
 C        -1.2073203620      -13.0040192211       -9.8414454006
 C         4.7660500620      -10.0974748708       -6.4392098960
 C         3.4312174309      -10.4932274646       -4.2551129859
 C         0.6407152586       -4.0612067238       -6.6827098305
 C        -1.1486666153       -5.8297027930       -6.1863382800
 C        -3.2036878390       -2.7873186374      -13.0325866860
 C        -0.9765845107       -2.0925280036      -14.2832293698
 C         0.2445843481        4.6850615026      -10.2258212308
 C         0.5073095600        2.6108809432       -8.9276064517
 C        -5.4408134908        4.7031412516       -4.3930085115
 C        -6.1525620148        2.7663077174       -5.7906181932
 C        -2.8333543321       10.4355369320       -7.3771388649
 C        -5.2330467711       10.3645494314       -7.9481521309
 C        -1.4499959249        8.2151930675      -14.8846294069
 C        -3.4115885794        9.7059542417      -14.3572668620
 C        -7.5136156103        3.7148348741      -13.1937700378
 C        -6.3931662882        3.5228008004      -10.8760021535
 H        -4.6055718903        1.6403677055      -14.4235353353
 H        -6.4447029747        1.9147745360      -14.2659717279
 H        -5.7816707739        0.9673424422      -13.1690081057
 H        -7.0813428753        6.5659787441      -13.2574376542
 H        -6.1716694569        5.7887148280      -14.4968470370
 H        -5.1674962484        8.0397693167      -12.8269741120
 H        -5.5185655947        8.1808230401      -14.4780323362
 H        -2.2752998891       10.5895726547      -12.1514468434
 H        -0.6889718779        9.8837953911      -11.8904441209
 H        -1.2837739398       10.4101185078       -9.7600806718
 H        -1.7919813130        8.6807713381       -9.6712722603
 H        -5.2620610097        6.9775205241       -8.7772078885
 H        -6.1628987084        8.0469457026       -7.7120574761
 H        -5.7315550481        6.8758373309       -5.7844471730
 H        -4.0758034479        6.4555861633       -6.1801198611
 H        -4.1432228392        3.6245748559       -8.2768383192
 H        -4.0736540361        2.1582564364       -7.3582342771
 H        -1.9163348075        2.0779489500       -7.9896852932
 H        -1.4265104469        3.5332137988       -7.1079009187
 H        -0.6148535872        0.4223057241      -10.3811040812
 H         0.9519448647        1.0074701252      -11.3628430922
 H         0.3469685976       -0.2716092522      -12.8934675545
 H        -0.9785535617        0.7385484655      -13.4045492511
 H        -2.1322724289       -4.7651522416      -10.8235971853
 H        -2.3531475245       -3.0985018515      -10.3943178111
 H        -0.2992879756       -3.1195854644       -9.0791564280
 H         0.3792194229       -4.3275465886      -10.0721501436
 H         2.2014407012       -6.2679159750       -5.9481851299
 H         3.0181000446       -5.7950102174       -7.4879927270
 H         4.1720505999       -7.6192021572       -6.9121465598
 H         3.0295546924       -8.2246811561       -8.0133069327
 H         0.4874804695      -11.0702960847       -5.4740799206
 H         1.3367454850      -12.5734667968       -5.4502103633
 H        -0.7777364286      -12.6316649972       -6.6848453332
 H         0.4103775596      -13.3456283450       -7.6867994882
 H        -2.6652374914      -11.7596735423       -7.4120664745
 H        -3.5542280408      -12.8466031550       -8.5892302708
 H        -5.1934657145      -11.3213327376       -7.0008035599
 H        -5.3662125465      -11.1142403693       -8.8536473354
 H        -3.6476112919       -7.3097414457      -10.1602847860
 H        -5.1710099273       -6.4770548420      -10.6150486461
 H        -5.6736017395       -8.7153277846      -12.0080987717
 H        -3.8559535565       -8.8272764699      -11.9621149078
 H        -7.0545690747       -4.2118172701      -14.6080366465
 H        -5.3865088341       -3.7266994387      -14.6080029202
 H        -6.2413214101       -1.6781199868      -13.6961928855
 H        -6.1367359030       -2.6273761879      -12.1955971187
 H       -11.3645809340        0.4151481012      -12.5575610101
 H       -10.3674442317        0.4247588594      -11.1400652649
 H       -10.8517710977       -1.1290483349      -11.7268347877
 H        -7.6266781340       -0.5816914817      -15.0157396879
 H        -9.0414586849       -1.0607965338      -15.9506762066
 H        -7.8679362856       -2.1822801144      -15.5917360038
 H       -10.8713797666       -2.1946444941      -14.9399852322
 H       -11.2383511098       -2.0099006378      -13.2328222172
 H       -10.2473646827       -3.4177736576      -13.8894765724
 H        -6.6183172092       -6.2121460227      -15.8150165486
 H        -5.9174591933       -7.7968969196      -15.6088203408
 H        -4.8879715110       -6.3374133323      -15.5952360817
 H        -7.9988751965       -7.1378284109      -14.0718604411
 H        -7.7087574884       -6.8454313100      -12.3826225544
 H        -7.1055367262       -8.3021174410      -12.9967580439
 H        -7.5355236862       -8.1246128326       -6.7824405944
 H        -6.5897070412       -9.6578664147       -6.4070281442
 H        -7.5437947682       -9.5501541257       -7.8672201279
 H        -4.4190654324       -6.5802885988       -8.3113125594
 H        -4.4746942227       -7.0176967628       -6.6824197160
 H        -5.9280218017       -6.4499975565       -7.5540588436
 H         0.7214585154      -11.3655180148      -10.7500274928
 H        -0.1359016899       -9.7772455174      -10.4015619353
 H        -0.6821224653      -10.7956213980      -11.5822674202
 H        -1.4314081808      -13.0842870817      -10.8964738941
 H        -2.0379577476      -13.6438139950       -9.4665531615
 H        -0.2006424027      -13.4412238861       -9.7690388704
 H         4.7765203960       -9.7307826759       -7.4596460936
 H         5.0510697932      -11.1571666394       -6.6318566830
 H         5.4050705751       -9.6357480445       -5.6367454891
 H         4.2366030261      -11.2133355879       -4.1088779368
 H         2.5004252339      -10.9219707182       -3.9597620081
 H         3.6414157202       -9.6531511456       -3.6269419723
 H         0.7820358164       -4.1092941028       -5.5907880327
 H        -0.1433618184       -3.2943407585       -6.8349397045
 H         1.5809509156       -3.7602238543       -7.1299222470
 H        -1.4369765947       -6.7739334366       -6.5619534692
 H        -1.8055681144       -5.0647067510       -6.1310426787
 H        -0.7226012725       -6.0119638947       -5.2073514758
 H        -3.6229895829       -2.4913250482      -14.0087101490
 H        -3.8278318053       -2.2992670932      -12.3062633718
 H        -3.1552905130       -3.8907996957      -12.9467055219
 H         0.1223366635       -2.0040782510      -14.1122628953
 H        -1.3689633667       -1.2514735948      -14.7484789329
 H        -1.1326599733       -2.9789485659      -14.8417173780
 H         0.5560633944        5.1303628220       -9.2637273264
 H        -0.4482295785        5.2478596919      -10.8349409880
 H         1.1845955893        4.4425007668      -10.7471999827
 H         1.3789150985        2.1652289610       -9.3356246044
 H         0.0327223867        1.8297919369       -8.3526227622
 H         1.0739267010        3.1493053169       -8.1732685482
 H        -4.7779003372        5.5727131690       -4.4077358838
 H        -5.3225866824        4.0578037599       -3.4898723315
 H        -6.4330632084        5.0406796668       -4.4517839258
 H        -6.2272750652        2.3966590400       -6.8493882280
 H        -7.2019230688        3.1574342752       -5.7158193058
 H        -6.0742962813        1.9081766805       -5.1793371518
 H        -1.8526995728        9.9793351758       -7.4530607669
 H        -3.1655452132       10.3882342639       -6.3467378009
 H        -2.6286671296       11.5039389886       -7.6241267459
 H        -5.9211943056       10.0354780057       -8.6910409230
 H        -5.1493682744       11.4755353914       -8.0174795118
 H        -5.4484081670       10.1944164899       -6.8963293756
 H        -1.6479491667        8.6860475849      -15.8458044632
 H        -1.2283264449        7.2167001349      -15.1295693749
 H        -0.5740621310        8.6526718616      -14.5225814611
 H        -4.3953894391       10.0222143020      -13.9169103475
 H        -3.7781273984        9.4479852031      -15.3363722890
 H        -2.7903057105       10.5938883359      -14.4264066675
 H        -7.2673583265        3.9055461483      -14.2461555815
 H        -8.2465768232        4.5119310545      -12.9661861297
 H        -8.0222786846        2.7394276068      -13.1862310497
 H        -7.0509614390        4.2478104145      -10.3715536130
 H        -5.4011598006        3.4846642692      -10.6249682075
 H        -6.8656502690        2.5420169016      -10.8206825203
 Na       -2.3889844747        4.8148840231      -11.8916149729
 Na       -1.5935002990       -8.2307978439       -8.2864005169
