232

 C        -5.3825613900        2.1898938464      -14.2952460597
 C        -5.1294658312        3.0221801949      -13.0537258879
 O        -4.0233468809        3.1348774704      -12.5461644018
 C        -6.2957317330        3.8058494903      -12.3658960641
 C        -5.7411984219        5.3043774541      -12.5420041845
 O        -5.1593137352        5.9043731099      -11.6367607380
 C        -6.0115979484        5.9616474989      -13.9629234759
 C        -5.2754701897        7.3242709068      -14.1286863955
 C        -3.7975740790        7.1214806254      -13.9859273609
 O        -3.3535887355        5.9797877372      -14.1129072207
 C        -2.7546293581        8.3133818240      -13.7495831655
 C        -2.1082679659        8.3303584449      -12.3054768766
 O        -2.0288616718        7.3937480472      -11.6016420503
 C        -1.6839883294        9.7253935573      -11.7135418388
 C        -1.8766158551        9.7001191679      -10.1700362486
 C        -3.3735249267       10.0313524237       -9.8956217407
 O        -4.2742554558       10.3076678412      -10.6843706500
 C        -3.6206176937       10.0354563473       -8.3125988201
 C        -3.8715168890        8.4555122983       -8.0165186183
 O        -2.9460342939        7.7414924795       -7.7233649393
 C        -5.3672729884        7.8181195812       -7.9105305381
 C        -5.5057693006        6.9680357867       -6.6734016173
 C        -5.4863231949        5.4142392635       -6.8930577659
 O        -5.9186819962        4.9428201376       -7.9193109463
 C        -5.0834903688        4.3147010594       -5.8181759873
 C        -3.5483782790        3.9428194960       -6.1849566986
 O        -2.6622608125        4.5644918768       -5.6629876728
 C        -3.2238942008        2.9115014645       -7.2414450183
 C        -1.8342318183        3.0028545344       -7.8793190128
 C        -1.6505662121        3.6593957096       -9.1969388151
 O        -2.5377051885        4.0112837550       -9.9248419728
 C        -0.2787561829        3.4085695895       -9.9712017904
 C        -0.4502217988        2.4231042001      -11.2719549142
 O        -0.7794375988        2.9049626548      -12.3652380450
 C        -0.2833262226        0.8301659271      -11.0605165067
 C        -0.7315253476        0.0672787074      -12.3247393329
 C        -1.6790943836       -1.0192404247      -11.8533566324
 O        -2.2809916570       -0.9328710478      -10.8231191509
 C        -1.7933655346       -2.2927369003      -12.7177939450
 C        -0.9911223193       -3.2677013133      -11.8245689438
 O         0.1647319348       -3.4653152352      -12.0950717531
 C        -1.7057339361       -3.7689685046      -10.6071796697
 C        -0.7489334302       -3.8951361303       -9.3746136341
 C        -1.0413158480       -5.1521864691       -8.6142375219
 O        -1.7146479566       -6.0858104520       -9.1393437244
 C        -0.3070431000       -5.3316763140       -7.2316608463
 C         0.7529915887       -6.4542890407       -7.5313310070
 O         0.3059489841       -7.4307904071       -8.0527602671
 C         2.3239010477       -6.3621583188       -7.0311622066
 C         3.0852538014       -7.7376743573       -7.0644961715
 C         2.5419919794       -8.7608815366       -6.1023619608
 O         1.5513091063       -8.5801535915       -5.4059453169
 C         3.2367929884      -10.1608467531       -5.9660887494
 C         2.2791738086      -11.2393137102       -6.6762218718
 O         2.7148555273      -11.8696919973       -7.6647950552
 C         1.0133160676      -11.6072426188       -5.9780743031
 C         0.0644296685      -12.2583895485       -7.0766244338
 C        -0.2083455393      -11.2014388369       -8.2003765663
 O         0.1840075288      -10.0758546964       -8.0616453534
 C        -1.0372308328      -11.6818491624       -9.4100794027
 C        -2.5014753445      -11.2604869624       -9.0500810354
 O        -2.9568891896      -10.2583284500       -9.6125023286
 C        -3.4581377790      -12.0290022992       -8.1914699611
 C        -4.6871184445      -11.1886212794       -7.7862625731
 C        -4.3451426713       -9.7013312602       -7.6258491324
 O        -3.2586723999       -9.3867000304       -7.2177197014
 C        -5.4134442555       -8.5469433873       -7.9016827736
 C        -5.7143762074       -8.4250596224       -9.5196105229
 O        -6.5767150442       -9.1102817544       -9.9648590306
 C        -4.8526708291       -7.5438975665      -10.5142992109
 C        -4.4405804476       -8.2190511858      -11.9462373486
 C        -4.4770277300       -7.1445680868      -13.0347726551
 O        -3.3800184999       -6.7117849551      -13.3488725474
 C        -5.8515469529       -6.6191565709      -13.7419533083
 C        -5.9951820084       -5.1994769743      -13.0470002711
 O        -5.9498627799       -5.0223655064      -11.8089265288
 C        -6.3123509172       -3.9390145492      -13.9495241280
 C        -6.7925367160       -2.8077266103      -13.0689718975
 C        -8.3435852883       -2.8558733631      -12.9134196514
 O        -8.8899807246       -3.7523182905      -12.3219824429
 C        -9.2073084030       -1.7512960087      -13.6553323551
 C        -9.1289372399       -0.5349744645      -12.7974979124
 O        -8.1364645834        0.1646958617      -12.8645764230
 C       -10.2927856328       -0.2344224109      -11.8998673423
 C        -8.4937093113       -1.3529367547      -15.0641994081
 C       -10.6087608506       -2.2738200493      -13.9340921479
 C        -5.5133079559       -6.4926130552      -15.2119915796
 C        -7.0748682223       -7.4871929282      -13.4307678674
 C        -6.7406345933       -8.8959280500       -7.2184638020
 C        -4.8294933926       -7.2654786638       -7.3547261118
 C        -0.6618428258      -10.8113934369      -10.6341557986
 C        -0.9241577597      -13.2665619591       -9.6912487764
 C         4.6294934279      -10.1999244598       -6.5386175277
 C         3.1392785626      -10.4868600759       -4.3989828441
 C         0.3635194323       -4.0687698441       -6.7140001754
 C        -1.2292443932       -5.8614417780       -6.1135564582
 C        -3.2805775484       -2.7358456681      -12.9605043187
 C        -1.0471212018       -2.1612603619      -14.0367343407
 C         0.1583654285        4.7682254326      -10.5467671362
 C         0.8722697802        2.8661307614       -9.0818553224
 C        -5.1213860709        4.8201433802       -4.3735112915
 C        -5.9087132844        2.9764016063       -5.9333479968
 C        -2.4327758316       10.5979030968       -7.4641090072
 C        -4.8230462978       10.9762748219       -8.1527545749
 C        -1.5507601066        7.9670564107      -14.6880834078
 C        -3.3258779954        9.6381206872      -14.2749234787
 C        -7.5887973594        3.6969238749      -13.0931727944
 C        -6.2833465288        3.4318450234      -10.8395647485
 H        -4.7967183576        1.3213556334      -14.1591312088
 H        -5.1543133757        2.7217457220      -15.2037894919
 H        -6.4607541554        2.1227384975      -14.4203499772
 H        -7.0875886199        6.2069299745      -14.1343498741
 H        -5.7157374038        5.2431078440      -14.7457946457
 H        -5.7395627307        8.0066787850      -13.3972447538
 H        -5.4973808846        7.7347945564      -15.1347402392
 H        -2.2145658861       10.5028895739      -12.1934680712
 H        -0.6421210391        9.8812506801      -12.0981356003
 H        -1.3758563130       10.5878100818       -9.7046427660
 H        -1.6401550024        8.7527459054       -9.6105236142
 H        -5.6554279370        7.1224554678       -8.7669441051
 H        -6.1184380233        8.5149355139       -7.9248095398
 H        -6.5126573187        7.0479213742       -6.3902716132
 H        -4.8857985299        7.2597191420       -5.7704176572
 H        -3.9981309713        3.1138199314       -7.9828048583
 H        -3.4249556257        1.9111106378       -6.8926171310
 H        -1.4016218038        1.9650625741       -7.9542765232
 H        -1.1908843441        3.4598064024       -7.1139300251
 H        -0.9688401881        0.5359096445      -10.2523836837
 H         0.7005036516        0.6930245160      -10.7737489680
 H         0.1785096264       -0.2957116774      -12.7868219898
 H        -1.1919114339        0.7814359717      -13.0076148536
 H        -2.2359360887       -4.7092582629      -10.9102812707
 H        -2.5450201627       -3.0989541265      -10.3788829930
 H        -0.7527145960       -2.9387493783       -8.8183372924
 H         0.3283984904       -3.9367928476       -9.7122148995
 H         2.2519793064       -6.1391395920       -5.9215831913
 H         2.7400776786       -5.5907588148       -7.7201642801
 H         4.1561620463       -7.5290582441       -7.0039586454
 H         2.9645174960       -8.2505740415       -8.0535665147
 H         0.4704050244      -10.6920882514       -5.6591252685
 H         1.0926014997      -12.2726762130       -5.0658656118
 H        -0.9039425517      -12.6625973780       -6.7029919170
 H         0.6510837907      -13.1265294526       -7.4496029449
 H        -2.9598118458      -12.3148262967       -7.3074331246
 H        -3.8761178868      -12.8893480686       -8.7711061116
 H        -4.9846511071      -11.5921351305       -6.7917049434
 H        -5.4280615215      -11.2480939767       -8.4756768076
 H        -3.9670017677       -7.1925063157      -10.0922368269
 H        -5.3547151830       -6.6576523479      -10.6699775782
 H        -5.1312251350       -9.0734076266      -12.1484808315
 H        -3.4354661366       -8.5971097822      -11.8556915799
 H        -7.0293405724       -4.2574297492      -14.7782848864
 H        -5.3729207691       -3.5641177718      -14.4397399754
 H        -6.5841189615       -1.8496694449      -13.4681411185
 H        -6.2152814164       -2.8883739026      -12.1008553535
 H       -11.2424663404       -0.1549429289      -12.3953232102
 H       -10.1033047158        0.6869886065      -11.2922857779
 H       -10.3757896180       -1.0471460606      -11.1824011211
 H        -7.4955261991       -1.0632433986      -14.9461624908
 H        -9.0348524205       -0.4830961694      -15.5250051077
 H        -8.5270445476       -2.1689884282      -15.8419298370
 H       -11.2976772340       -1.4734341063      -13.7988642676
 H       -10.9405696434       -3.0369136357      -13.1755551494
 H       -10.6353907173       -2.6249228171      -14.8945827517
 H        -6.2691535101       -6.1749549819      -15.8207834349
 H        -5.3717443647       -7.5062022112      -15.5430861548
 H        -4.6729707417       -5.8406963484      -15.4607492057
 H        -7.9096554146       -7.0849619253      -14.0691539116
 H        -7.4478903620       -7.4457268653      -12.3806302634
 H        -6.9063943568       -8.4740477789      -13.6921738770
 H        -6.9857043177       -8.0532560432       -6.5812382996
 H        -6.5889185668       -9.7616679445       -6.6297365144
 H        -7.5674525626       -9.0657871503       -7.8726102477
 H        -3.8399290682       -7.4565038766       -6.9264855660
 H        -5.4817643782       -6.8281600502       -6.5998538601
 H        -4.6476210702       -6.4374682526       -8.0640142853
 H         0.3861530105      -10.9004484599      -10.9914803167
 H        -0.7944396343       -9.7870068749      -10.4211388320
 H        -1.2997850022      -10.9323213685      -11.5253368228
 H        -1.8566383014      -13.7151222629       -9.9395051610
 H        -0.7281007431      -13.8235965918       -8.7829221503
 H        -0.1149983616      -13.4726041407      -10.3688180748
 H         4.5413109588      -10.3994740994       -7.5747611324
 H         5.1203140566      -11.0282303882       -6.0936702358
 H         5.1283582731       -9.3296579552       -6.2205856738
 H         3.1218319689      -11.6063325684       -4.2057222443
 H         2.3447340017       -9.8938814141       -3.9765009446
 H         4.0705271767      -10.1286172844       -3.9277393090
 H         1.0856321861       -4.3755291698       -5.9617695891
 H        -0.3752201115       -3.3814352271       -6.2618007797
 H         0.9666285805       -3.5380153407       -7.3930424025
 H        -1.5899995486       -6.8183105295       -6.5263908092
 H        -1.9359804242       -5.0447405634       -5.9179008841
 H        -0.6395775352       -6.2078484870       -5.2142771017
 H        -3.7767341166       -1.8534606672      -13.3959346317
 H        -3.8191837768       -3.0099332043      -12.0089289095
 H        -3.3992139323       -3.4852934335      -13.7180314153
 H         0.0941547517       -1.9945775672      -13.9333680217
 H        -1.3243957467       -1.1614096215      -14.4156342713
 H        -1.1571930667       -3.0855682581      -14.5870415250
 H        -0.0868755333        5.4597784482       -9.7794078045
 H        -0.4598044730        4.9638877394      -11.3859936141
 H         1.2406967135        4.7313289094      -10.7250023133
 H         1.9181351219        2.8705515158       -9.3255108072
 H         0.6729460832        1.8562434004       -8.8674237477
 H         1.0568186264        3.3020787831       -8.0817069341
 H        -4.2939406310        5.5354669364       -4.2595759324
 H        -4.7548879390        3.9983166676       -3.7595411533
 H        -6.0842116854        5.2453896726       -4.1209518095
 H        -6.1551160451        2.5637814477       -6.9150953379
 H        -6.8421037091        2.8682020911       -5.4267694467
 H        -5.2609920984        2.3078917679       -5.4705535402
 H        -1.6623794426        9.8956819664       -7.3022282858
 H        -2.8250430492       10.8914986277       -6.4804767051
 H        -1.9722567063       11.5430698683       -7.8793514973
 H        -5.6374153809       10.6882886124       -8.7563907896
 H        -4.4649336290       11.9472033407       -8.5060816079
 H        -5.0735581181       11.0540966223       -7.0693462724
 H        -1.7759674773        7.1261935462      -15.3676948342
 H        -0.6233551006        7.6687152232      -14.1312761190
 H        -1.2210839293        8.7750853883      -15.3319170393
 H        -4.0638220470       10.1469116132      -13.6938850664
 H        -3.8824699463        9.5915518151      -15.2316564248
 H        -2.5030940115       10.2837554177      -14.4038142751
 H        -7.5462134437        3.8983607552      -14.1620415032
 H        -8.2463754662        4.4340315190      -12.6551608643
 H        -7.9804737004        2.6849203161      -13.0114194968
 H        -7.1352794656        2.6796086017      -10.7547444385
 H        -6.4254719186        4.3457118819      -10.3214277472
 H        -5.3150789069        3.0201504068      -10.6245147889
 Na       -2.7922179301        5.1150428578      -12.1851153513
 Na       -1.6783384791       -8.5468852655       -8.8731564543
