232

 C        -5.6443909862        2.2918475034      -14.7775709634
 C        -5.2174712411        2.9873080744      -13.5148634815
 O        -3.9571837085        3.0480576398      -13.3337620815
 C        -6.1615422648        3.7830375783      -12.6081168679
 C        -5.6940691457        5.3145294069      -12.7774820716
 O        -5.2210353509        6.0193782262      -11.8662432566
 C        -6.1209142752        5.9986211505      -14.1173607786
 C        -5.2752134692        7.2897373589      -14.4715505170
 C        -3.8582540574        6.9694510549      -14.0805629588
 O        -3.4219697206        5.8648430499      -14.1814477952
 C        -2.8590186193        8.0772769525      -13.8328678653
 C        -2.4250702743        8.1614959346      -12.3492819368
 O        -2.5647496176        7.1978471588      -11.6374998728
 C        -1.5709041150        9.3202413241      -11.8126064359
 C        -1.7669819738        9.3748644944      -10.3124778464
 C        -3.1815176590        9.7089942510       -9.9931752389
 O        -3.9748111005        9.7574255369      -10.9187130226
 C        -3.5473551640       10.1733713679       -8.5284280060
 C        -3.9669879547        8.6629792266       -7.8476569875
 O        -3.1265296585        7.8371183491       -7.8760389392
 C        -5.3651211636        8.4534450509       -7.4073486850
 C        -5.5864653345        7.2817616556       -6.3621061386
 C        -4.9999426690        5.9563892138       -7.0228140827
 O        -5.1362732994        5.7155482927       -8.1669430028
 C        -4.5311084046        4.7821169444       -6.0086354784
 C        -3.0372674912        4.3769130260       -6.3963492086
 O        -2.2067657212        5.2759014286       -6.3744339720
 C        -2.6962504496        3.0740803202       -7.0347543213
 C        -1.3590955653        3.0510308276       -7.8434196129
 C        -1.4372209147        3.8790802412       -9.2130697294
 O        -2.4339407481        4.4689458053       -9.5941909326
 C        -0.1136693053        3.8832499860       -9.9628812172
 C        -0.6129845285        2.9200580071      -11.1907230266
 O        -1.1424027021        3.3549854002      -12.1725155920
 C        -0.4390319361        1.4312119908      -10.9952142937
 C        -0.9804533954        0.6218155897      -12.2461916451
 C        -1.7495703255       -0.5542077578      -11.6761773020
 O        -2.3065326415       -0.4336068035      -10.6313106058
 C        -1.6812431105       -1.9383018693      -12.4065174076
 C        -1.0580407698       -3.0803781659      -11.4289309483
 O         0.1143681955       -3.3537494384      -11.4977478032
 C        -1.9573836819       -3.8657518657      -10.4502727841
 C        -1.2372804781       -4.1467686759       -9.1118896353
 C        -1.4058632517       -5.4331408421       -8.3634985159
 O        -2.0896821585       -6.3060241148       -8.8330427578
 C        -0.3725164839       -5.4934238604       -7.1153140941
 C         0.8015655714       -6.4129506059       -7.6051898862
 O         0.5821561767       -7.3151488327       -8.4380616307
 C         2.2078920868       -6.2281497476       -6.9954452546
 C         3.0344216750       -7.5486597616       -6.9550926466
 C         2.3742286302       -8.6385745022       -6.1261107789
 O         1.3366073765       -8.3994342263       -5.5627495341
 C         3.0086635815      -10.0359637275       -6.0502908686
 C         2.1521427487      -11.0808027876       -6.8115902671
 O         2.5733208730      -11.6634050052       -7.8268257612
 C         0.8058757697      -11.5023108134       -6.2104706993
 C         0.0878988059      -12.5745848112       -7.1886678250
 C        -0.4836898956      -11.7640711769       -8.4134410284
 O        -0.3754529562      -10.5450569998       -8.4370176531
 C        -1.3392402603      -12.4147940186       -9.4707056638
 C        -2.6962153013      -11.4848225768       -9.4630508643
 O        -2.8185127616      -10.6100403202      -10.2500724607
 C        -3.5905726349      -11.9946733469       -8.2628774404
 C        -4.7101188482      -11.0849686248       -7.7647926366
 C        -4.3364771880       -9.6341284895       -7.5858937149
 O        -3.2110431691       -9.3484550092       -7.1117622756
 C        -5.3578067798       -8.5402157233       -7.9100098947
 C        -5.5976351159       -8.7704980309       -9.4536648985
 O        -6.2724510453       -9.7170735065       -9.8705007426
 C        -4.7740560741       -7.7847950606      -10.2589858551
 C        -4.5094030227       -8.3130343583      -11.6239787624
 C        -4.1896552585       -7.2653264210      -12.7013637714
 O        -3.0739961639       -6.7613377253      -12.7361025603
 C        -5.3852497094       -6.7851095915      -13.6425321901
 C        -5.9220182873       -5.4431556258      -12.9670154320
 O        -5.7105751761       -5.2774502475      -11.7788392924
 C        -6.8643390117       -4.4634315315      -13.7810308682
 C        -7.3966984551       -3.2085289994      -13.0019599831
 C        -8.9044912442       -3.1218686512      -12.9805936631
 O        -9.6499343531       -4.0473210839      -12.7002026440
 C        -9.5165535104       -1.7224035855      -13.4547464210
 C        -8.9692634768       -0.6028840961      -12.4703468070
 O        -8.0395177068        0.1232119478      -12.8594959668
 C        -9.6480405529       -0.3865352098      -11.1581770994
 C        -9.0307087835       -1.5591246482      -14.9678350557
 C       -11.0913638026       -1.8682786800      -13.5489753940
 C        -4.9677090132       -6.5023986190      -15.1237108252
 C        -6.5986845594       -7.7639608104      -13.5871492297
 C        -6.7433491502       -8.8378951629       -7.2336524428
 C        -4.9581090881       -7.0943873355       -7.3597236675
 C        -0.4704117723      -12.4607280260      -10.7129706435
 C        -1.6325259837      -13.9333508289       -9.2227040926
 C         4.5423724627      -10.1766254863       -6.6159349033
 C         3.0669733050      -10.3923798490       -4.4578356537
 C        -0.0000351112       -4.0482530444       -6.5066101864
 C        -0.9834492848       -6.5001768862       -6.0661508863
 C        -3.0655410129       -2.3198502946      -12.9191050900
 C        -0.7895140809       -1.8806770969      -13.6411897110
 C         0.2530384647        5.3180372635      -10.4959328130
 C         1.0228689454        3.2514826897       -9.2448340352
 C        -4.4017240542        5.1997266493       -4.4641480996
 C        -5.5069237601        3.5351207256       -6.0847130067
 C        -2.2470813518       10.4722730430       -7.6920862822
 C        -4.5544851917       11.3692962582       -8.2852078050
 C        -1.5601723389        7.6428350111      -14.6402999713
 C        -3.4085380063        9.4753908487      -14.2421712425
 C        -7.6592208090        3.7415532699      -12.9735010638
 C        -6.0786688540        3.3504795805      -11.0969529215
 H        -6.4773592285        1.6117836551      -14.5757680950
 H        -4.7742992105        1.9296043173      -15.2175064298
 H        -6.0917708551        3.0447503853      -15.4462308441
 H        -7.1894386901        6.1873597697      -14.1000015489
 H        -5.9737171162        5.2975075972      -14.9435729312
 H        -5.8064983700        8.1676615735      -14.0551500341
 H        -5.1768994845        7.3203261811      -15.5435070809
 H        -1.6836085282       10.3076408506      -12.3358975949
 H        -0.5283687054        8.9484966739      -12.0348459446
 H        -0.9605917245       10.0109290943       -9.8432257790
 H        -1.8104989651        8.3954830571       -9.7566117548
 H        -5.9795542417        8.2156188552       -8.2677637126
 H        -5.7382493725        9.5285795824       -7.1390640383
 H        -6.6874538242        7.0686122764       -6.3281257774
 H        -5.1574813003        7.3941736816       -5.4002470501
 H        -3.5493586427        2.6471403952       -7.6187597094
 H        -2.6807855614        2.3490090001       -6.1928712838
 H        -1.1252605253        2.0239406859       -8.0897949009
 H        -0.5321312931        3.4655608349       -7.2409336445
 H        -0.7386010066        1.0767208517       -9.9990997217
 H         0.6605824776        1.1865245669      -10.8777233047
 H        -0.0372585894        0.3448719825      -12.7352386553
 H        -1.6129493519        1.3319721590      -12.8397671789
 H        -2.0510836282       -4.8515359096      -11.0190319699
 H        -2.9376405586       -3.6017696064      -10.3100294775
 H        -1.2936346971       -3.3097743486       -8.5280800215
 H        -0.0957694961       -4.1180041687       -9.4455264646
 H         2.0284924604       -5.8727476408       -6.0069311360
 H         2.7615546676       -5.4289364318       -7.4623072034
 H         3.9909007677       -7.2780413013       -6.4672450546
 H         3.3272042580       -7.8156128359       -7.9776427242
 H         0.1707642485      -10.6705855285       -6.1036536609
 H         0.9306071330      -11.9845504032       -5.1802640074
 H        -0.7415625848      -13.1167232469       -6.5843909043
 H         0.8598573904      -13.2841321255       -7.5101251919
 H        -2.8599373139      -12.2841145709       -7.4456501263
 H        -4.0547363320      -12.8733344834       -8.6375462916
 H        -5.0110572100      -11.2806327508       -6.7030554002
 H        -5.6541106895      -11.1915995992       -8.4373942589
 H        -3.8312551915       -7.5984000760       -9.8102809718
 H        -5.2877325488       -6.7839737080      -10.2954072737
 H        -5.3974805473       -8.9056968312      -11.8754896090
 H        -3.7507933293       -9.1099084278      -11.5762179342
 H        -7.6743095038       -5.1342826111      -14.2264320121
 H        -6.2037080225       -4.0702531065      -14.6596537898
 H        -6.8740973711       -2.2822611542      -13.2687640593
 H        -6.9809323569       -3.3961752380      -12.0003818833
 H       -10.4925841360        0.2218272644      -11.4071002397
 H        -8.9452444178        0.1428134335      -10.4950363000
 H       -10.0863542168       -1.2297704120      -10.7231431314
 H        -7.9070732914       -1.5519141933      -15.1291833895
 H        -9.3383826839       -0.6353962494      -15.3259737594
 H        -9.3705616020       -2.4022519682      -15.4885942158
 H       -11.3578263933       -1.2111551548      -14.3617489524
 H       -11.6252942604       -1.6949050291      -12.6564934297
 H       -11.3335915050       -2.8641633043      -13.8067106454
 H        -5.8797361950       -6.0703451145      -15.5358541233
 H        -4.6747276361       -7.3508757351      -15.6166770739
 H        -4.1611906194       -5.7592766589      -15.2740221302
 H        -7.4654996304       -7.4212793543      -14.1302021894
 H        -6.8506576858       -7.9679654259      -12.5179466520
 H        -6.3543673108       -8.6977645730      -14.0929571014
 H        -7.5574237297       -8.3745238178       -7.6937827926
 H        -6.6818620685       -8.4288864800       -6.2249702938
 H        -6.8483975321       -9.8845292143       -7.2216060855
 H        -5.5580570650       -6.2904530104       -7.8065251451
 H        -3.8789285412       -6.9238047636       -7.5419149593
 H        -5.1310263903       -7.0745573576       -6.2429880547
 H         0.3659295750      -13.0777594386      -10.4557507485
 H         0.0521025788      -11.6016126158      -11.1412673000
 H        -0.9671430752      -13.0698637664      -11.4806934086
 H        -0.8110476607      -14.4570472370       -8.6432923268
 H        -1.7809876227      -14.3848823408      -10.1599784573
 H        -2.6242380392      -14.1443261141       -8.8766468320
 H         4.6115736139      -10.0240467692       -7.6941922735
 H         4.7646828284      -11.1621437921       -6.2991246755
 H         5.1894595725       -9.4946649061       -6.1542887147
 H         3.4670906270      -11.3977605111       -4.3797605539
 H         2.0106369467      -10.3893877986       -4.0899248990
 H         3.6525757131       -9.5935011731       -3.9593540829
 H         0.6406276681       -3.9783153626       -5.6370207875
 H        -0.8836307703       -3.5134246473       -6.2295971585
 H         0.4162621518       -3.4376914994       -7.3328533552
 H        -1.3239776344       -7.3942688203       -6.4991866333
 H        -1.8497094803       -5.9961447386       -5.5352676716
 H        -0.1682801697       -6.6005499502       -5.4208530960
 H        -3.1976324367       -1.9116446312      -13.9422600714
 H        -3.9845075665       -1.9879076229      -12.2793556966
 H        -3.2335575388       -3.3847961822      -12.9468521276
 H         0.2623389122       -1.7628744064      -13.4996593952
 H        -1.1736223492       -1.0044317928      -14.2970938731
 H        -1.0182135808       -2.7208601602      -14.2561590718
 H         0.5949150228        5.7918402626       -9.6112132550
 H        -0.6105957862        5.8393066107      -10.9161934251
 H         1.0708646664        5.1679623736      -11.1772540367
 H         1.9488396808        3.1958108871       -9.8338443825
 H         1.0027821861        2.2128453862       -8.9570886792
 H         1.2458891732        3.6727487611       -8.2792562550
 H        -3.5522794576        5.8555113622       -4.4310305928
 H        -4.1123717741        4.2917535340       -3.9506167636
 H        -5.2686678837        5.6525824921       -3.9026894672
 H        -5.7469570399        3.2877072034       -7.0825925021
 H        -6.3834820665        3.7326382682       -5.5413101350
 H        -5.1277329789        2.6085586016       -5.6201367008
 H        -1.7023500023        9.5364514789       -7.4753971091
 H        -2.5427138784       11.0163436218       -6.7887849324
 H        -1.6194938070       11.1262657814       -8.2578547578
 H        -5.5757762162       11.0428335678       -8.4903548166
 H        -4.2223619346       12.1655566617       -8.8921858805
 H        -4.5407241884       11.6477092112       -7.2420970080
 H        -0.9484847136        7.0222882777      -14.0737989907
 H        -0.9886980838        8.5135055693      -14.9898663039
 H        -1.8492059588        7.0735814598      -15.4947368377
 H        -4.1362729840        9.7937114587      -13.5759967873
 H        -3.7564629607        9.4999056584      -15.3073395630
 H        -2.7097050980       10.3033610309      -14.2211149325
 H        -7.7599230674        4.0803514772      -13.9970465006
 H        -8.0901210983        4.4737186287      -12.3099211407
 H        -8.1553861575        2.8051843184      -12.7136183130
 H        -5.1833337756        3.5434967998      -10.5774526596
 H        -6.2335493874        2.3190051757      -11.1060836688
 H        -6.7548732504        3.9891239144      -10.6638754466
 Na       -2.9242103452        4.9175394437      -12.0661451233
 Na       -1.5977815134       -8.7063995164       -8.7706869977
