232

 C       -22.0830269406       -7.6586985882       -3.0695702193
 C       -21.0668678112       -6.5798737749       -3.4222815729
 O       -20.0786015139       -6.5299103548       -2.7591092966
 C       -21.1684919336       -5.6855085255       -4.7538331229
 C       -20.2693926888       -4.4031610274       -4.6238564641
 O       -20.1050156643       -3.8825206730       -3.5282630969
 C       -19.8793990079       -3.5769335791       -5.8512797611
 C       -18.4584703121       -3.6797679717       -6.4824592222
 C       -17.4480957720       -4.0826648059       -5.4138116364
 O       -17.7091912236       -5.1650844498       -4.9071430174
 C       -16.1866552527       -3.2153893066       -5.1077468869
 C       -16.4274278121       -2.7891934099       -3.6382202685
 O       -17.4855791142       -2.4977916508       -3.1111120621
 C       -15.2204374143       -2.7332535871       -2.7481070586
 C       -15.4540857722       -2.3975358400       -1.2752143520
 C       -15.9556058316       -3.6020046328       -0.4463876250
 O       -16.9923010111       -4.1539653871       -0.7311881263
 C       -15.2360642526       -4.0569433887        0.9338870480
 C       -13.7213257566       -4.3985692411        0.4416005591
 O       -12.9524086897       -3.5369814154        0.2220282644
 C       -13.3612653991       -5.9067268445       -0.0004699825
 C       -12.0219231401       -5.8984299488       -0.8657204573
 C       -12.4812282108       -6.2627134678       -2.2844001051
 O       -13.4174191254       -5.6726708042       -2.7332020994
 C       -11.5807869550       -7.2700256742       -3.1553221197
 C       -10.2497446559       -6.6769066072       -3.6324331314
 O        -9.6616377604       -5.8104109719       -2.9997385249
 C        -9.5231566731       -7.4260429404       -4.6998904047
 C        -8.0336805290       -7.4205177619       -4.2166607776
 C        -7.4478473765       -6.0284575176       -4.5366615760
 O        -7.9976944645       -5.3580482341       -5.4181618143
 C        -6.0970735254       -5.4799260669       -3.9429591369
 C        -5.0488846978       -6.0504671523       -4.9514325369
 O        -4.7378896002       -7.2417623315       -4.9446947996
 C        -4.2308478146       -5.1226200707       -5.7799808330
 C        -2.8188529638       -5.0959534126       -5.1862827606
 C        -1.9340414827       -3.9544192721       -5.7479857408
 O        -2.4942113486       -2.9807702988       -6.2185753328
 C        -0.4453968392       -4.0831294013       -6.0564016999
 C        -0.3599419684       -4.7675953218       -7.4540547255
 O         0.0354848429       -5.9194578444       -7.4540663071
 C        -0.8422474433       -3.9533434371       -8.7065518930
 C        -0.4433321358       -4.7266129830      -10.0017636943
 C         1.0540404509       -4.8713062287      -10.1871302393
 O         1.9235889901       -4.4268601989       -9.4024694807
 C         1.5325088987       -5.7395506743      -11.3821537678
 C         1.5324240171       -4.6691716841      -12.5793997942
 O         0.7270223730       -4.6537171825      -13.4764450568
 C         2.5821626798       -3.5195017321      -12.3772142091
 C         2.3686693841       -2.3815105189      -13.4711253902
 C         3.0743521869       -0.9742494104      -13.2011886625
 O         2.4385974442       -0.1442207390      -12.5490574486
 C         4.4966021516       -0.6183284789      -13.6903066465
 C         4.5299918819        0.4817054830      -14.8355505479
 O         5.1152581661        0.2715049824      -15.8861696615
 C         3.7902241740        1.8554790021      -14.6645250877
 C         4.2902443008        2.7055080691      -13.5369665310
 C         5.7177154813        3.0770832328      -13.5739891048
 O         6.5465436301        2.4293999425      -14.2493429194
 C         6.2199550550        4.3261100865      -12.6370542012
 C         6.7905202459        5.5737645152      -13.4643549063
 O         6.8840810472        6.5996778771      -12.8382859923
 C         7.1109674693        5.4772782966      -14.9572117460
 C         6.7590186699        6.6362142193      -15.8196561887
 C         6.5122025785        6.2640415540      -17.2852166510
 O         6.5379529278        5.0951173668      -17.6631016222
 C         6.1802848931        7.3760429828      -18.3114099463
 C         7.2952263704        7.3475322729      -19.5024948700
 O         8.4182984925        7.5985934749      -19.2270266010
 C         6.8875202529        6.7282431500      -20.9783413515
 C         7.9906486926        6.4475507385      -22.0138895033
 C         7.9145305759        5.1031322238      -22.7145886732
 O         6.8697125141        4.4901119106      -22.6668718299
 C         9.1339228075        4.4253839994      -23.4264201243
 C         9.5700247752        3.0419945079      -22.7199460795
 O         9.8366878068        1.9440415184      -23.2206685309
 C         9.4172099822        3.0429474543      -21.1763488364
 C         9.3554227934        1.6067524114      -20.5214543245
 C         8.3055708989        1.6265718369      -19.3347362866
 O         8.0319737779        2.6344868957      -18.7921298858
 C         7.4262522187        0.2618743615      -19.0446293211
 C         5.9814294986        0.4979061482      -19.0789957354
 O         5.4421346961        1.2787130038      -18.3094796207
 C         5.1483393824       -0.0231663971      -20.2733300779
 C         8.0193373666       -0.8809902336      -19.9618509513
 C         7.8128366467        0.0170390293      -17.5116947369
 C         8.9828138017        4.2991300423      -24.9413132063
 C        10.4502248476        5.3108303896      -23.2466254215
 C         4.6967509095        6.8573057504      -18.8619956598
 C         6.2222431033        8.7844584699      -17.6473862553
 C         5.0734057163        4.8510562463      -11.5762983332
 C         7.4337846389        3.8282458800      -11.8500433689
 C         5.1587415094       -0.2675220721      -12.3728025230
 C         5.1762841512       -1.8813417462      -14.2942615555
 C         2.8971916667       -6.3942394854      -11.2531739138
 C         0.6597543207       -7.0134379156      -11.6719362121
 C         0.0699605110       -2.5921087195       -6.0561496864
 C         0.3066981496       -4.8277250979       -5.0252342586
 C        -6.1703897768       -3.9222038334       -3.9703117207
 C        -5.6983878948       -6.0181875342       -2.5957332839
 C       -11.1424375346       -8.5336332953       -2.1224491449
 C       -12.2437787674       -7.9801313571       -4.3947967890
 C       -15.2048584919       -2.7905422273        1.9122517482
 C       -15.8575686404       -5.3309617748        1.5414584175
 C       -14.9205983724       -4.0993155233       -5.3643220513
 C       -16.1781440996       -1.9332745676       -5.9632416088
 C       -20.4438421159       -6.5542602992       -5.8756852402
 C       -22.6234286687       -5.3733954269       -5.1514935475
 H       -21.8365770828       -8.3911882862       -3.8688421200
 H       -23.0332659842       -7.3753405200       -3.3307556298
 H       -21.9024102897       -8.1416583993       -2.1109745248
 H       -19.9879991716       -2.5046495302       -5.5718015490
 H       -20.6069118455       -3.8752966615       -6.6449812743
 H       -18.0521343495       -2.7861030942       -6.9647085096
 H       -18.4040388360       -4.4626503172       -7.2912189906
 H       -14.4099298373       -1.9970173559       -3.0970746172
 H       -14.7418202567       -3.6757571265       -2.6726074526
 H       -16.0863639260       -1.5578098067       -1.2258522060
 H       -14.4066160549       -2.0473691981       -0.8646362003
 H       -14.1603525902       -6.3308931613       -0.6111151330
 H       -13.3151481730       -6.6069696688        0.8430701465
 H       -11.2646733175       -6.5204633290       -0.4850610857
 H       -11.6687043206       -4.8418071245       -0.8218884811
 H        -9.6388860262       -6.8794581570       -5.6944259860
 H        -9.8341700051       -8.5082882913       -4.7915408185
 H        -7.5502206604       -8.2203493236       -4.8434236038
 H        -7.9954450759       -7.6246275867       -3.1735684197
 H        -4.5167205261       -4.0204353158       -5.8456534260
 H        -4.0453670949       -5.4251196468       -6.8601412317
 H        -2.2603319211       -5.9610683299       -5.3788916850
 H        -2.9678684864       -4.9287416902       -4.1415789823
 H        -0.4768795951       -2.9144926734       -8.6940559242
 H        -1.9162499963       -3.9713833133       -8.5391724411
 H        -0.7602083346       -4.2007958892      -10.9406283390
 H        -0.8568481786       -5.8216053839      -10.0248213107
 H         3.6012338186       -3.9643870475      -12.3043712751
 H         2.2548174949       -2.9536445690      -11.4662221868
 H         1.3326927867       -2.2293049261      -13.5030757830
 H         2.7096420463       -2.8920284485      -14.3593114698
 H         2.7435845658        1.6241770474      -14.4008499254
 H         3.9571003450        2.3998257091      -15.5804964124
 H         4.1452623878        2.2272802762      -12.5629827755
 H         3.6943379585        3.6494484108      -13.4806367214
 H         6.6704014844        4.5755341796      -15.4125373329
 H         8.2207409805        5.3540115625      -14.9941315051
 H         7.5115295609        7.2762994034      -15.7759466116
 H         5.8820525403        7.1934830041      -15.5572640958
 H         6.0370832188        7.2497197813      -21.4213255272
 H         6.4496045089        5.7922147876      -20.5024993541
 H         8.8921462241        6.4357049069      -21.4311834488
 H         7.9881449660        7.3502149656      -22.6478820315
 H         8.4418257049        3.5700765022      -21.0757401210
 H        10.2530004265        3.6223476441      -20.7242229423
 H        10.2954426017        1.2959415927      -20.0891926001
 H         9.0661276700        0.8363069096      -21.3464028755
 H         4.3436278572       -0.7165907582      -19.9430370702
 H         5.7715451094       -0.6329383856      -20.9437801971
 H         4.7286839260        0.7476835997      -20.9288319694
 H         7.5372412441       -1.7321410756      -19.5717921918
 H         9.1005281698       -0.8273466241      -19.6454335304
 H         7.7760088442       -0.7100621613      -20.9658839901
 H         8.5283091416       -0.8199557564      -17.3562366318
 H         6.8920237079       -0.3679081982      -16.9503228486
 H         8.1319132665        0.9919406325      -17.0509331561
 H         7.9876381110        4.5279518643      -25.4447642713
 H         9.0687617068        3.2215635864      -25.1671538270
 H         9.8740632307        4.5722760091      -25.4190240027
 H        11.1833457986        4.9129170732      -23.9859521636
 H        10.8370228666        5.3607055073      -22.2242830258
 H        10.3069496831        6.3981731947      -23.4238857412
 H         4.0599761214        7.0127755445      -18.0185353435
 H         4.8887311735        5.8405562545      -18.9561685271
 H         4.2405045341        7.3777730266      -19.7212974275
 H         7.1650251100        8.9387863641      -17.0308279203
 H         5.3942244634        8.9475629477      -17.0173695019
 H         6.2060617040        9.5751543044      -18.4334878686
 H         5.4382040628        5.7431744954      -11.1646445718
 H         4.8946468387        4.2916328005      -10.6191515451
 H         4.1072410587        5.0476468105      -11.9983504148
 H         7.0913299031        3.0645116476      -11.1994654573
 H         7.7353510941        4.6438372086      -11.1874838435
 H         8.2432650260        3.5020546476      -12.5363332296
 H         5.7778724741        0.5426470093      -12.3593494855
 H         5.8344214015       -0.9741379535      -12.0096910989
 H         4.4002514610       -0.0608087228      -11.6199702060
 H         5.0736983849       -2.7877461685      -13.7128573799
 H         6.2295449871       -1.5583093552      -14.4037144061
 H         4.7832546760       -2.0011640656      -15.3279418740
 H         3.0081114175       -7.2953844990      -10.5285122337
 H         3.6413907153       -5.7399696916      -10.8531506267
 H         3.2073986145       -6.6646312522      -12.2873585039
 H        -0.3037933072       -6.8932343283      -12.1302072974
 H         0.6840861390       -7.6377508493      -10.8162085131
 H         1.1728251997       -7.4844918342      -12.4448701796
 H        -0.3225244721       -1.9542988063       -5.1909900080
 H        -0.1385609236       -2.1399891826       -7.0432652352
 H         1.1477009130       -2.5546110665       -6.0970409082
 H        -0.3045981464       -5.6523506084       -4.6875242424
 H         0.5332426588       -4.0975204896       -4.1893319014
 H         1.2724706654       -5.1989877433       -5.4054168313
 H        -6.8148049174       -3.5680302595       -4.7691975744
 H        -5.1770150120       -3.4384807506       -3.9280782372
 H        -6.6646353682       -3.5220968731       -3.0452082773
 H        -6.3718311494       -5.9008988390       -1.7683861370
 H        -4.7292588834       -5.5901447556       -2.3146896756
 H        -5.4445333723       -7.1095904799       -2.7438015458
 H       -12.1202636945       -9.0031485499       -1.8988446002
 H       -10.7462846024       -8.2086879647       -1.2145610893
 H       -10.5565093214       -9.2804585510       -2.7024203335
 H       -13.2880765005       -8.3011012037       -4.1594752291
 H       -11.8940886350       -8.9892880047       -4.6553025645
 H       -12.2074641011       -7.2672628651       -5.1494037106
 H       -14.3595623628       -2.0894156885        1.5214905909
 H       -15.0151206313       -3.0675953187        2.9503033530
 H       -16.1888716431       -2.2523516070        1.8201773589
 H       -15.3273383552       -6.3083631415        1.3206734348
 H       -16.9535664447       -5.3542562239        1.2259029693
 H       -15.6913072700       -5.3253720296        2.6725142050
 H       -15.3207513235       -5.0370860392       -5.6157048363
 H       -14.2100670819       -4.3579747584       -4.5596186336
 H       -14.3499327705       -3.6171664418       -6.1380378932
 H       -17.0916240093       -1.3696129334       -6.1403990660
 H       -15.7391719373       -2.0504749725       -7.0244162938
 H       -15.4761819185       -1.1440751126       -5.5420341982
 H       -19.3870200342       -6.7054632802       -5.5894401386
 H       -20.5514310212       -6.1545605844       -6.8868589637
 H       -20.9182392493       -7.4761057216       -5.9255655283
 H       -22.8395362879       -5.4781331985       -6.1597486814
 H       -22.8143290646       -4.3201350654       -5.0709172849
 H       -23.3665820177       -6.0021204098       -4.6406320488
 Na      -18.3237194498       -4.9218778484       -2.4647247889
 Na        6.6188561451        2.7052011260      -16.6192018307
