232

 C        -5.8217890525        2.1508493853      -14.7197036185
 C        -5.3048533902        3.1110626994      -13.6500946830
 O        -4.1362990609        3.1253425659      -13.4515738053
 C        -6.2600121910        3.7774895139      -12.7295931526
 C        -5.8903390690        5.3423483696      -12.8172908697
 O        -5.2961218453        5.9426608513      -11.9860778521
 C        -6.2084458482        6.0637338734      -14.1127253152
 C        -5.3616239984        7.2909291884      -14.2257758069
 C        -3.8394360423        6.8682832690      -14.1527044038
 O        -3.4662873994        5.6623840229      -14.2780105117
 C        -2.7798802052        7.9884320353      -13.9701512979
 C        -2.3422726754        7.9986294067      -12.4496826888
 O        -2.4035750463        6.9807281709      -11.7359077565
 C        -1.4605565277        9.1851248459      -11.9365268519
 C        -1.6405575018        9.4223161682      -10.4556389120
 C        -3.0750262058        9.8274542503       -9.9396914968
 O        -3.8719919378       10.0049175110      -10.8314251799
 C        -3.4441123440       10.1598015805       -8.5587004796
 C        -4.0547178801        8.8374589053       -7.8199593653
 O        -3.2147744507        8.0111217944       -7.5180259092
 C        -5.5257482920        8.5840955803       -7.2754006169
 C        -5.4515483195        7.4275058791       -6.3025036708
 C        -4.8709637261        6.0266088083       -6.9058270916
 O        -4.8995088481        5.6991491124       -8.0739494798
 C        -4.3666856666        4.9089274794       -5.9015301565
 C        -2.9980260434        4.6883206106       -6.4694823413
 O        -2.0811798853        5.4950469785       -6.5397780927
 C        -2.6451250390        3.2841309960       -6.9671021642
 C        -1.3232313493        3.2597516791       -7.6929953161
 C        -1.4944232067        3.9746624042       -9.1002068334
 O        -2.4965369876        4.5248671804       -9.4306299351
 C        -0.1480131600        3.9657927577       -9.9673978968
 C        -0.6034943982        3.0768908445      -11.2480908678
 O        -1.1646214104        3.5055739434      -12.2511397307
 C        -0.2331121631        1.6087643660      -11.2376555689
 C        -1.0453547730        0.7060380321      -12.1774046181
 C        -1.6496800238       -0.5779449219      -11.6159316326
 O        -2.3640789067       -0.6333052440      -10.5840787517
 C        -1.6414447710       -1.9160405445      -12.4033176900
 C        -1.1376094862       -2.9203387708      -11.3055652059
 O         0.0744400080       -3.0886372416      -11.2841150112
 C        -2.0556391176       -3.7801574540      -10.4264780185
 C        -1.2451589144       -4.0769025035       -9.0971673508
 C        -1.3698212425       -5.4214431035       -8.3334523035
 O        -2.1015756718       -6.3398870905       -8.7653349802
 C        -0.4918211700       -5.7005921581       -7.0769293798
 C         0.7931871254       -6.5600054126       -7.6694809402
 O         0.7074246062       -7.3585758738       -8.5594452593
 C         2.1302696591       -6.2287055597       -7.1297788575
 C         2.9981442888       -7.5007528213       -7.0957339810
 C         2.3166400496       -8.6214663747       -6.1861262552
 O         1.2515079839       -8.3817255435       -5.6283709111
 C         3.0658955368      -10.0717972535       -5.9570993321
 C         2.2086812503      -11.1854046063       -6.9247003760
 O         2.6165481063      -11.5300431557       -7.9852919909
 C         1.0279194259      -11.7612510843       -6.2221297973
 C         0.2565844525      -12.6518788404       -7.1404910974
 C        -0.4192193682      -11.9087113215       -8.2550853476
 O        -0.2729059090      -10.7232372222       -8.4985152474
 C        -1.4089397490      -12.7209287387       -9.2867400048
 C        -2.6842560212      -11.8590461627       -9.1664524638
 O        -2.6854055441      -10.8005289432       -9.8367238762
 C        -3.8167737561      -12.2637170568       -8.1569202580
 C        -4.8023954774      -11.1877163719       -7.8533688650
 C        -4.3991338933       -9.6725629381       -7.5932947511
 O        -3.3131589325       -9.4044338456       -7.1846506347
 C        -5.5016823186       -8.4799018566       -7.8371484214
 C        -5.6641888591       -8.6940423243       -9.4395203125
 O        -6.4010988124       -9.6007305985       -9.8541118375
 C        -4.9247254442       -7.7140878003      -10.3830796898
 C        -4.3326197197       -8.3830121871      -11.6997349502
 C        -4.1948021306       -7.2514080485      -12.7882918298
 O        -3.2676791780       -6.4790544881      -12.7833721654
 C        -5.3535253848       -6.8383475134      -13.7086822221
 C        -5.9807526553       -5.5047162016      -12.9061955044
 O        -5.5212979509       -5.0668771514      -11.8905730689
 C        -7.1807839080       -4.7042882742      -13.5924379375
 C        -7.5069330318       -3.5000637671      -12.6894317701
 C        -8.9846882330       -3.1890929955      -12.9846444636
 O        -9.7300831964       -4.1355713165      -13.0952626677
 C        -9.5208645377       -1.7411659487      -13.3621299609
 C        -8.8967766039       -0.6695374056      -12.5391047717
 O        -8.2740886613        0.2472156975      -13.0127710504
 C        -9.4488641528       -0.4564725382      -11.0739367851
 C        -9.0747109355       -1.5464623200      -14.8295063541
 C       -11.0632730235       -1.7538817509      -13.1461668116
 C        -4.7311715402       -6.5083330501      -15.1093811888
 C        -6.5483809630       -7.7751000558      -13.8468191016
 C        -6.8330672461       -8.8892923369       -7.1160179714
 C        -5.0008612126       -7.1206485277       -7.3851268655
 C        -0.7692096114      -12.4665606053      -10.7791216086
 C        -1.4979002384      -14.1845629433       -8.9345876063
 C         4.4899968317      -10.0120383792       -6.5275931798
 C         2.9615189622      -10.5621889102       -4.4509917837
 C        -0.0710337471       -4.4145016851       -6.4060891372
 C        -1.3511928300       -6.4756267304       -6.0333659198
 C        -3.0755977450       -2.3083085553      -12.7729503028
 C        -0.7110054971       -1.9699304251      -13.6048095760
 C         0.1626932943        5.3783625008      -10.4771160282
 C         1.1454155508        3.4275848838       -9.3175540121
 C        -4.3000028695        5.2478784933       -4.4362859239
 C        -5.3705030445        3.6827881518       -6.1210355456
 C        -2.1421017505       10.6029206689       -7.7911898205
 C        -4.4918265973       11.2465146704       -8.6705061369
 C        -1.4252992714        7.8857699619      -14.8077090190
 C        -3.3860938004        9.3295290087      -14.4140416458
 C        -7.7377790836        3.5835942727      -13.1304772623
 C        -5.8499407338        3.3118487260      -11.3160265941
 H        -6.8283110592        1.8021766020      -14.4912297881
 H        -4.9794136582        1.3807287781      -14.7347191819
 H        -5.9881525484        2.6549845099      -15.6805145339
 H        -7.2766697636        6.2815448525      -14.1868546937
 H        -6.0343079085        5.3920795069      -14.9428110454
 H        -5.6523796232        7.7992385664      -13.3463104213
 H        -5.5733242751        7.8928696550      -15.1373998153
 H        -1.5241745811       10.0546286611      -12.5624777450
 H        -0.4785153367        8.7631766011      -12.0291676898
 H        -1.0752721853       10.2777778243      -10.2211294641
 H        -1.2169562092        8.5973396349       -9.8899112345
 H        -6.1730864564        8.3336765567       -8.1521014894
 H        -5.9610798249        9.4414711917       -6.8810301106
 H        -6.4756577960        7.2779105865       -5.9460949195
 H        -4.7474741732        7.6052544008       -5.4268342832
 H        -3.4480965742        3.0145921191       -7.6374171088
 H        -2.6890902272        2.4637461086       -6.2432867099
 H        -0.9690475863        2.2197085137       -7.7926664749
 H        -0.6236905774        3.8179131971       -7.0705209685
 H        -0.0092493252        1.2068063089      -10.2160625924
 H         0.8211516202        1.5221078063      -11.5549802576
 H        -0.3450686515        0.4546839094      -12.9683070306
 H        -1.7848287732        1.4517720710      -12.4896902109
 H        -2.3943273671       -4.6187998230      -10.9443250436
 H        -3.0409116742       -3.2629795931      -10.0799244375
 H        -1.4200977907       -3.0817034737       -8.4801656534
 H        -0.2623453699       -4.0083918228       -9.3615733269
 H         2.1482689442       -5.6638927371       -6.1596878893
 H         2.5382632666       -5.3868754452       -7.7514436685
 H         4.0144104688       -7.2279299326       -6.8079767129
 H         3.0263006502       -7.9210694864       -8.1026686464
 H         0.4061451909      -10.9359131209       -5.7296127147
 H         1.2917723588      -12.4196102524       -5.4826897323
 H        -0.3736828368      -13.2028749042       -6.5624807765
 H         0.9990584045      -13.3066706715       -7.6045366561
 H        -3.2642691820      -12.5817614849       -7.2810925995
 H        -4.4102337456      -13.1971154338       -8.5019089958
 H        -5.3790831138      -11.4561126746       -6.9625789147
 H        -5.5283536486      -11.2127802183       -8.6087887096
 H        -4.1323992832       -6.9484769147      -10.0113994974
 H        -5.7967110043       -7.0908563577      -10.6749255358
 H        -5.0355729447       -9.1329103113      -12.0640757248
 H        -3.4085955063       -8.9447435869      -11.5264231761
 H        -7.9950941541       -5.3545032760      -13.6606839621
 H        -6.9431175283       -4.4093924082      -14.5474068265
 H        -6.8243973800       -2.6784923531      -12.9562784272
 H        -7.0800112419       -3.8283317167      -11.7182902945
 H       -10.4852374302       -0.0625912019      -11.1593102277
 H        -8.8360447857        0.1960843036      -10.5176194608
 H        -9.5964096105       -1.4367980163      -10.5353239604
 H        -8.0868637683       -1.8465347566      -15.0420436140
 H        -9.0780612670       -0.4265313330      -14.9297635525
 H        -9.8205681865       -2.0331698781      -15.5086874340
 H       -11.4297899868       -0.7226031349      -13.2119114018
 H       -11.1614372077       -2.1684207377      -12.1324536551
 H       -11.6381971351       -2.4642199273      -13.8522257029
 H        -5.5573743041       -6.1883269109      -15.7896774061
 H        -4.1875993948       -7.4780022029      -15.4322006858
 H        -3.8977249836       -5.8237167298      -15.0991475200
 H        -7.1167170080       -7.2785386569      -14.6427924922
 H        -7.1480022390       -7.9896590653      -13.0149085180
 H        -6.2728610053       -8.7370347590      -14.3542380093
 H        -7.3383606113       -7.9012561726       -6.9876672661
 H        -6.6544380969       -9.1992772138       -6.1032928900
 H        -7.4495381708       -9.5566910527       -7.7634744020
 H        -4.9599695075       -6.4467103425       -8.2805747066
 H        -3.9785849006       -7.2580847190       -7.0055536675
 H        -5.5795178593       -6.7068954457       -6.5866112824
 H         0.2416713716      -12.8412665430      -11.0558441484
 H        -0.6002731112      -11.3797085315      -10.8642644605
 H        -1.4353353310      -12.7962663706      -11.5606980545
 H        -0.4818900059      -14.5127819055       -8.9354155051
 H        -2.2635419484      -14.6975790158       -9.5958930703
 H        -2.0044268067      -14.3378988770       -7.9725100465
 H         4.3221948082       -9.8738573778       -7.6056098780
 H         5.1072218911      -10.9258281743       -6.2502329876
 H         4.9596781427       -9.0153687471       -6.2145542514
 H         2.6985029090      -11.6052385990       -4.3815015728
 H         2.1695358219      -10.0198169583       -3.9916418417
 H         3.9069662415      -10.3452396164       -4.0216242530
 H         0.1862497117       -4.6003034628       -5.3673521945
 H        -0.9038912084       -3.7063156948       -6.2710334618
 H         0.7220878742       -3.8786761634       -6.8866398911
 H        -1.9194535839       -7.1438193917       -6.7054409447
 H        -2.1251159379       -5.8723606288       -5.6901740814
 H        -0.8172979191       -6.8622591033       -5.1632646325
 H        -3.5783901148       -1.3615153528      -12.9819718266
 H        -3.7018203299       -2.8037564499      -12.1485787418
 H        -3.1242551130       -2.9206546343      -13.7135120921
 H         0.2390757431       -1.6120275729      -13.3077639016
 H        -1.1158859529       -1.4684825274      -14.4298350707
 H        -0.6526772854       -2.9205574786      -14.1574939255
 H         0.3883026044        5.9978422546       -9.5668637089
 H        -0.7443690403        5.7077151542      -10.9960691630
 H         1.0183245348        5.3102428587      -11.1598949835
 H         1.9456631023        3.1991319656      -10.0062540320
 H         1.1608365813        2.5225791741       -8.6732682840
 H         1.5204472647        4.1312602223       -8.5890251887
 H        -3.7693387442        6.2027677872       -4.3174012161
 H        -3.8709337409        4.3622808754       -3.9151303297
 H        -5.2179728132        5.2326107647       -3.9347097067
 H        -5.3202084815        3.3687402415       -7.1788484267
 H        -6.4073137876        3.6828249000       -5.7084115002
 H        -4.8969313374        2.8797682245       -5.5994971765
 H        -1.4298423658        9.7851807734       -7.6557651141
 H        -2.5026977307       10.9012219715       -6.8218341386
 H        -1.7263562702       11.4666109923       -8.3565518245
 H        -5.1958102596       11.0595565926       -9.4758586574
 H        -3.9410509944       12.2127644407       -8.7108773810
 H        -5.0273140465       11.2238943321       -7.7272270973
 H        -0.7210087071        7.3554022799      -14.1554586606
 H        -1.0237392560        8.8451785399      -14.9254284655
 H        -1.5644712851        7.4485607410      -15.8069180712
 H        -4.2551422667        9.7171738794      -13.7758002746
 H        -3.5793263465        9.3573183877      -15.4518223407
 H        -2.6699308377       10.1529232772      -14.2299782481
 H        -7.7605687802        3.8114321484      -14.1992531676
 H        -8.4153606679        4.2391947800      -12.5402384098
 H        -7.9796070710        2.5569713508      -12.8704607224
 H        -5.1828301871        4.0927043019      -10.9315418759
 H        -5.2458613932        2.3231376892      -11.3355715681
 H        -6.7256343145        3.3704092977      -10.5628773409
 Na       -2.8984197289        4.8488640097      -11.9936969704
 Na       -1.3801052379       -8.6741484734       -8.9203237373
