232

 C        -5.7452838125        1.8855807146      -14.8569015892
 C        -5.3407236714        2.9562566863      -13.6798137843
 O        -4.1324331427        3.2265731998      -13.5154584637
 C        -6.3218063856        3.7866631541      -12.7028817383
 C        -5.9582661920        5.3211595651      -12.8589785244
 O        -5.2839861984        5.8334783473      -11.9556449698
 C        -6.2472624513        6.1721451590      -14.1116589776
 C        -5.2027057833        7.3296430133      -14.2252735296
 C        -3.7984581606        6.8886184525      -14.2154667731
 O        -3.5467283796        5.7095423097      -14.3821707303
 C        -2.6755879812        8.0520472240      -14.0255717446
 C        -2.1968140218        7.9860225531      -12.5400552232
 O        -2.3807251533        7.0088669348      -11.8618268409
 C        -1.4214825511        9.2150209567      -11.9739420012
 C        -1.5484177596        9.4060917661      -10.4423014071
 C        -3.0666012016        9.8593402601      -10.0929577155
 O        -3.8688343688       10.0246379367      -10.9783968308
 C        -3.5237371789       10.1711374979       -8.4765733181
 C        -3.8988237413        8.8765022606       -7.7002664779
 O        -3.0153159129        8.1062288571       -7.4023632657
 C        -5.3175147476        8.5905508011       -7.3649011662
 C        -5.4387744785        7.4826020858       -6.3283487196
 C        -4.9053271448        6.1078073752       -6.9083372227
 O        -5.0437720392        6.0018951338       -8.0908071674
 C        -4.3300171110        5.0123936352       -5.8814016844
 C        -2.8932542835        4.7660385508       -6.3955740144
 O        -2.0740541858        5.6915823045       -6.4387857001
 C        -2.5941015169        3.3216042605       -7.0021375771
 C        -1.2381415425        3.2370241331       -7.7384476482
 C        -1.2919189066        3.9366429517       -9.1761749068
 O        -2.3691743957        4.4238238263       -9.5595341572
 C        -0.1253060216        3.9759247914      -10.0694303681
 C        -0.4857102840        2.9970026561      -11.2763159561
 O        -1.0507454166        3.4976398150      -12.1962917837
 C        -0.1784636645        1.4673219348      -11.2700522179
 C        -1.1625592236        0.7129957006      -12.2336885161
 C        -1.7583970022       -0.5492518328      -11.6041832400
 O        -2.2672894768       -0.5649385921      -10.4943082202
 C        -1.6640740337       -1.8950147472      -12.3818002840
 C        -1.0654255224       -2.9293278931      -11.2573642460
 O         0.1340124834       -2.9887850575      -11.1466553879
 C        -1.9390494573       -3.7307190651      -10.2874750217
 C        -1.2192933775       -4.0744189329       -8.9371125477
 C        -1.4013102250       -5.4472459748       -8.4087901871
 O        -2.0878182240       -6.3340409325       -8.8971434441
 C        -0.5979338206       -5.7891931952       -7.1490664869
 C         0.6422420620       -6.6652710742       -7.7047429493
 O         0.5171132366       -7.5223359814       -8.5705133425
 C         2.0479551935       -6.3726882141       -7.0898771005
 C         2.9098082045       -7.6507169136       -7.0861168754
 C         2.2899292044       -8.6839214187       -6.1851663298
 O         1.2208259335       -8.4093879432       -5.6677423257
 C         3.0566860429       -9.9731930090       -6.0570627762
 C         2.3450583641      -11.1295863114       -6.8533296726
 O         2.6526768430      -11.3482047315       -8.0126262391
 C         1.1792654746      -11.8298645115       -6.2028604597
 C         0.2992537769      -12.7888629184       -7.1252828457
 C        -0.2540523871      -11.9924904080       -8.3077816356
 O        -0.1961056897      -10.7667404789       -8.3986688682
 C        -1.3583396678      -12.7144317515       -9.1755135282
 C        -2.7009266168      -11.8281712557       -8.9329823356
 O        -2.8351134476      -10.8115441321       -9.5233162983
 C        -3.8142808703      -12.2809122472       -8.0470797650
 C        -4.9185554815      -11.1916668292       -7.9123813223
 C        -4.3933763321       -9.7385187602       -7.7605624363
 O        -3.2763331206       -9.4880928308       -7.3364494320
 C        -5.4410926177       -8.4909843709       -7.9774595519
 C        -5.7761746630       -8.5794778547       -9.5668416046
 O        -6.4823056241       -9.5580287425       -9.8925309861
 C        -5.0247541313       -7.6683975607      -10.4633699413
 C        -4.3495388899       -8.3342559943      -11.7035683241
 C        -4.2318690204       -7.1918181027      -12.6952304641
 O        -3.2112362735       -6.5080207587      -12.7324202742
 C        -5.4194836044       -6.7606089376      -13.6881273072
 C        -5.9031118482       -5.4596954191      -12.9886015613
 O        -5.3599784739       -5.0469596495      -12.0029600069
 C        -7.1872166149       -4.8433019322      -13.4452459167
 C        -7.6701058530       -3.5803639616      -12.7267993948
 C        -9.0743091474       -3.3170595079      -13.1081427550
 O        -9.9205462583       -4.1998787674      -13.1794329112
 C        -9.4841238635       -1.7600721637      -13.2565960314
 C        -8.9280755336       -0.5986562616      -12.4857711972
 O        -8.2966105152        0.2878474117      -13.0629923897
 C        -9.2619740410       -0.5180709407      -10.9752261937
 C        -9.2147120644       -1.4964833970      -14.8308541811
 C       -11.0486569113       -1.6804425930      -13.0656823118
 C        -4.7008257790       -6.3958251857      -14.9684136649
 C        -6.5708698589       -7.8886840706      -13.9687371435
 C        -6.7056265201       -8.9775421074       -7.2722052188
 C        -5.0029259622       -7.1901472427       -7.2355263462
 C        -1.0282737065      -12.5833527761      -10.6554740957
 C        -1.5308150741      -14.2450855109       -8.9959962489
 C         4.5389375056      -10.0111730065       -6.5085704628
 C         3.0262471354      -10.3628664508       -4.4920318835
 C         0.0161509015       -4.4687451799       -6.3192145891
 C        -1.4467807383       -6.6024406661       -6.1888690194
 C        -3.1212994025       -2.2173742318      -12.8434875053
 C        -0.7148128982       -2.0825956499      -13.5751777885
 C         0.0626561485        5.4626254686      -10.4906207172
 C         1.1222501395        3.5826813554       -9.3603609475
 C        -4.3161980326        5.3810149223       -4.3812360223
 C        -5.3224379861        3.8080125477       -6.0104714270
 C        -2.1863885705       10.6216063718       -7.6962440165
 C        -4.6556840729       11.2728063270       -8.6844863136
 C        -1.4283067426        7.8170863225      -14.9013995336
 C        -3.3527120144        9.3889515507      -14.3734890109
 C        -7.8667530584        3.4829884303      -13.0076481609
 C        -5.9614493453        3.3048953428      -11.2793429112
 H        -6.6380387387        1.2543394646      -14.6065411950
 H        -4.8077161251        1.3663054871      -15.0506648029
 H        -6.1795095274        2.4892808329      -15.6833417603
 H        -7.3115943896        6.5112860694      -14.1004306617
 H        -6.1896337811        5.5322168273      -15.0137143486
 H        -5.3945275027        7.9271045244      -13.3435205047
 H        -5.3673297846        7.9565171045      -15.1499797798
 H        -1.8692844846       10.0571363938      -12.5432154889
 H        -0.4336341359        9.0777010536      -12.2573704153
 H        -0.9956674474       10.2468268619      -10.1058964325
 H        -1.1723491269        8.5176699652       -9.8923368580
 H        -5.6740444335        8.5112767727       -8.3392997536
 H        -5.8676689986        9.4952836344       -6.9518015154
 H        -6.4773450024        7.4581072394       -5.8956008651
 H        -4.7816927642        7.7493882821       -5.5681449697
 H        -3.4359568362        2.9513526364       -7.5321156303
 H        -2.4724103455        2.6347016766       -6.1689732102
 H        -0.9837861010        2.2035414806       -7.8793717400
 H        -0.5145723705        3.6828142923       -6.9587094674
 H        -0.1315226031        1.0557094625      -10.3302672651
 H         0.8838700586        1.2142891125      -11.5197691724
 H        -0.6131093220        0.4755719286      -13.1232264466
 H        -1.8361179142        1.5135685604      -12.4359822426
 H        -2.1005599216       -4.7500041710      -10.7464283753
 H        -2.9696615116       -3.3964286405      -10.1106279119
 H        -1.3685360191       -3.2656751866       -8.1757705962
 H        -0.1643365490       -4.0397271579       -9.1830108425
 H         2.0877823972       -5.8829048333       -6.0758741452
 H         2.5573810180       -5.4887334399       -7.6174300052
 H         3.9264686057       -7.3695669156       -6.7160927968
 H         3.0173834661       -8.1104079577       -8.0851016956
 H         0.5333445864      -10.9824938308       -5.7988149960
 H         1.4485786955      -12.4650590457       -5.3116918423
 H        -0.4962287908      -13.1619120797       -6.5238918036
 H         0.9138962163      -13.6284919782       -7.5146159791
 H        -3.3928175847      -12.5796589484       -7.0976098324
 H        -4.2511408889      -13.2103114500       -8.4280080791
 H        -5.4776839496      -11.4230991807       -7.0878147295
 H        -5.6919707595      -11.1878424726       -8.7201348720
 H        -4.1412000689       -7.3492454821       -9.9321919323
 H        -5.5104825460       -6.7856589448      -10.6240383893
 H        -4.8249706007       -9.2083072890      -12.1302271744
 H        -3.3273719558       -8.6656760161      -11.4124375774
 H        -7.9073777581       -5.6204437906      -13.3818501837
 H        -7.0897621991       -4.6450074153      -14.5120627153
 H        -6.9235919891       -2.7175629805      -12.8925997490
 H        -7.6214581565       -3.7677671664      -11.6663683959
 H       -10.3432695588       -0.2127286334      -10.8837477172
 H        -8.6397121620        0.1907707787      -10.3846991424
 H        -9.2433658193       -1.5375632417      -10.5360252338
 H        -8.1297117962       -1.6836807653      -15.2252913148
 H        -9.4154390435       -0.4318063388      -14.9888344399
 H        -9.9765849567       -2.0746130555      -15.3532593478
 H       -11.3230724800       -0.6064628646      -12.8860788872
 H       -11.2865334797       -2.2737285256      -12.2214696820
 H       -11.6141640080       -2.0963179603      -13.9576973839
 H        -5.4627326347       -5.9406511043      -15.6971762564
 H        -4.2051966493       -7.2671457682      -15.3312198504
 H        -3.8425385739       -5.7592499226      -14.7991964598
 H        -7.0166052955       -7.6549998532      -14.8884855456
 H        -7.3479991239       -8.0153398188      -13.2381635117
 H        -6.1029605940       -8.9033307998      -14.1651385884
 H        -7.1651783049       -8.0480577939       -6.9288878770
 H        -6.4160244667       -9.4701501910       -6.3116396982
 H        -7.4149081943       -9.5261061783       -7.9356646768
 H        -5.1406757454       -6.3385450458       -7.9003655428
 H        -4.0111967420       -7.2234840594       -6.8514441685
 H        -5.5982513939       -7.1211806938       -6.3622759120
 H        -0.1208535695      -12.9939409946      -10.9775070784
 H        -0.9296931178      -11.5091096642      -10.9748853838
 H        -1.8260567063      -13.0571600942      -11.1904752821
 H        -0.7296019337      -14.6753879777       -9.6016351464
 H        -2.5443271623      -14.4969140478       -9.1812021952
 H        -1.3920854386      -14.5535438650       -7.9681786854
 H         4.7141842113       -9.7306940929       -7.5651466602
 H         4.8047662745      -11.0480904707       -6.2657936262
 H         5.0971979347       -9.3303731842       -5.8526654788
 H         3.2129833735      -11.3764234514       -4.3153655536
 H         2.0758516511      -10.0927481457       -4.0139391961
 H         3.8624611146       -9.7731537835       -4.1757017779
 H         0.5868123645       -4.7466867216       -5.4455503204
 H        -0.7351781634       -3.8517234956       -5.8863688126
 H         0.6686714784       -3.8209096336       -6.9521988474
 H        -1.9197179763       -7.4311198139       -6.7394332950
 H        -2.3764545840       -5.9778496527       -5.8420541984
 H        -0.8715875345       -6.7621122199       -5.2793905211
 H        -3.7502158067       -1.3698330422      -12.8484244730
 H        -3.7520324849       -2.9222194423      -12.2774479397
 H        -3.1045857681       -2.6439140784      -13.8117865929
 H         0.2627228809       -1.7991078305      -13.2650444128
 H        -1.0763824863       -1.6461180913      -14.5753686513
 H        -0.7207185302       -3.0837877796      -14.0272882146
 H         0.1613865693        6.0403743007       -9.5513875686
 H        -0.8932387135        5.6259995926      -11.0349401238
 H         0.9123961097        5.5559543649      -11.1313181353
 H         1.9643819100        3.6011048298      -10.0745226177
 H         1.2408665716        2.5813959899       -8.8777718501
 H         1.3903145596        4.2317466233       -8.5724956178
 H        -3.7443892905        6.2731433471       -4.1943049098
 H        -4.0084705940        4.4483622183       -3.8983411782
 H        -5.2827072234        5.3790745014       -3.8534598718
 H        -5.4831278774        3.4241883363       -7.0105365223
 H        -6.2978126513        4.0078950821       -5.5059566045
 H        -4.8884726970        2.9526192054       -5.3678359480
 H        -1.3361040287        9.8850287640       -7.8659405383
 H        -2.4418532095       10.5109101212       -6.6439736735
 H        -1.9393605940       11.6175935981       -8.0075422146
 H        -5.2251308401       10.9539204107       -9.6025716663
 H        -4.1679873825       12.2625292997       -8.7840656238
 H        -5.3399279133       11.3203173424       -7.8475445662
 H        -0.8876779055        6.9217327174      -14.5392106358
 H        -0.7164748682        8.7106222603      -14.7215023389
 H        -1.7284748949        7.8499302618      -15.9918153495
 H        -4.0742734306        9.6745408227      -13.6303543593
 H        -3.7822225075        9.3849860289      -15.3641268386
 H        -2.6441317591       10.2548322144      -14.3183340122
 H        -8.1123994122        4.0312549185      -13.9002738213
 H        -8.5460148750        3.6959101811      -12.1732295191
 H        -7.8805509209        2.4120214440      -13.1494083485
 H        -5.2874498926        4.0080410678      -10.7249939366
 H        -5.4116090147        2.2743082324      -11.3929729597
 H        -6.9125119403        3.2382734078      -10.6339602108
 Na       -3.1395395084        4.7686304975      -11.8972964894
 Na       -1.3366149965       -8.6615647593       -8.9396610698
