232

 C        -5.6982727004        1.9468007960      -14.6961923379
 C        -5.3314417796        2.9659670934      -13.7261739042
 O        -4.1005593573        3.1691592953      -13.5913698460
 C        -6.3346888611        3.6630533574      -12.7780111858
 C        -5.9514489293        5.2445679796      -12.8785026780
 O        -5.3137507207        5.7213455038      -11.9407032520
 C        -6.2965638416        6.1658982692      -14.0639182973
 C        -5.2820263712        7.3787675578      -14.1988331248
 C        -3.7661839170        6.9353041316      -14.3579014372
 O        -3.3914243242        5.8313125361      -14.4472351245
 C        -2.6753801670        8.0874859626      -14.1027201439
 C        -2.1664242761        8.0160209264      -12.5682325998
 O        -2.3041300325        7.0526024672      -11.8844015013
 C        -1.4464412365        9.2857202358      -11.9325841002
 C        -1.6615039262        9.4101555592      -10.4027681338
 C        -2.9820759513        9.9111573805      -10.1465232222
 O        -3.8268279812        9.9508974566      -11.0559000175
 C        -3.3976047715       10.2182484107       -8.6481658687
 C        -3.6947704789        8.8320730396       -7.8422509616
 O        -2.8125714685        8.2220451113       -7.3093406230
 C        -5.2949026737        8.5943047385       -7.3819352815
 C        -5.4089337714        7.6411790727       -6.2192697201
 C        -5.0370441946        6.3043832412       -6.8518712877
 O        -5.1240430236        6.0312672141       -8.0361737377
 C        -4.4131144104        5.1414780125       -5.9287943926
 C        -2.8622125830        4.8474313055       -6.4689931835
 O        -2.0523944253        5.6854609620       -6.2791635995
 C        -2.4879939741        3.4431237118       -6.9489892622
 C        -1.2049854354        3.3134066152       -7.7966176861
 C        -1.3526337181        3.8795139461       -9.1960799203
 O        -2.4224085889        4.2571800213       -9.6501397927
 C         0.0247970202        3.9780707145      -10.1515194299
 C        -0.3144464295        3.0131526786      -11.3574899921
 O        -1.0580451458        3.4588840099      -12.2304383413
 C        -0.1941603859        1.4792273466      -11.2928676746
 C        -1.2025005277        0.6930959287      -12.2663150700
 C        -1.6997877788       -0.5940982048      -11.5467354281
 O        -2.1521026697       -0.3850373893      -10.4668283235
 C        -1.6721948763       -2.0619315942      -12.2943511340
 C        -1.0182453003       -2.9675202070      -11.1981537208
 O         0.1854505455       -2.8659921157      -11.0322444742
 C        -1.9244931254       -3.7210922140      -10.2710134868
 C        -1.2169212668       -4.0234292159       -8.9529197647
 C        -1.3863797576       -5.4139219097       -8.4827938498
 O        -2.0377408569       -6.2262302323       -9.0693887214
 C        -0.5807057415       -5.9419464413       -7.1541769401
 C         0.5900135178       -6.7250926765       -7.5869412331
 O         0.3322669740       -7.5803836773       -8.4425113147
 C         2.0190327945       -6.4574163972       -7.1496732744
 C         2.9023487045       -7.6827221091       -7.2391223612
 C         2.2923501032       -8.7498787121       -6.2552646068
 O         1.2362810170       -8.6088417990       -5.6800705668
 C         3.1536117913      -10.0629978294       -5.9935768104
 C         2.3487300296      -11.0659621128       -6.8486942887
 O         2.7093399518      -11.1818779959       -8.0198009854
 C         1.2063298998      -11.8841805651       -6.1454129145
 C         0.3996850969      -12.8346165182       -7.1646819882
 C        -0.3449223451      -11.9597537016       -8.2121139634
 O        -0.0068706069      -10.7999845121       -8.2800448624
 C        -1.4735984842      -12.6842252078       -9.2014805954
 C        -2.7556612514      -11.8525259932       -8.8746249194
 O        -2.7931020943      -10.7703372450       -9.3899889276
 C        -3.8524492468      -12.2559428298       -7.8393649355
 C        -4.9800221636      -11.1693859061       -7.9359482230
 C        -4.3994110293       -9.7914979299       -7.7363798046
 O        -3.2008865811       -9.4798264814       -7.5041617050
 C        -5.5079199899       -8.7044076368       -7.9009408607
 C        -5.6886774349       -8.6380434933       -9.5037504673
 O        -6.4965330265       -9.3142712787      -10.0455963893
 C        -5.0030178127       -7.6061014502      -10.3728887116
 C        -4.4683496769       -8.2842077673      -11.6398795651
 C        -4.1601283676       -7.2461232982      -12.7195779853
 O        -3.1268803506       -6.6143308796      -12.6914171061
 C        -5.2984635014       -6.7430383555      -13.6886839090
 C        -5.9456454217       -5.5128669098      -12.9307647575
 O        -5.2168685587       -4.9336316632      -12.1119153432
 C        -7.3247661828       -4.9970045513      -13.4627419678
 C        -7.7511017284       -3.6437472611      -12.7827293666
 C        -9.2529882400       -3.2947930463      -13.0290604500
 O       -10.0574730454       -4.1445904208      -13.2693309422
 C        -9.7023693975       -1.7625093468      -13.3215879281
 C        -8.9026752267       -0.6360028376      -12.4630118433
 O        -8.2542743768        0.3037835110      -12.9589438651
 C        -8.9929989196       -0.6087090084      -10.9402303199
 C        -9.3713651196       -1.4813533470      -14.8776761552
 C       -11.1938964703       -1.6378620733      -13.0512457588
 C        -4.7437626834       -6.2517506026      -14.9974421224
 C        -6.3373158006       -7.8163225322      -13.9387625514
 C        -6.8828537609       -9.1974680644       -7.2695961036
 C        -4.8936359404       -7.3810152617       -7.4132135307
 C        -1.2014957925      -12.5451793034      -10.6868418607
 C        -1.6415824760      -14.3114356846       -8.8656231528
 C         4.5855925638       -9.9657787279       -6.4698889088
 C         3.0970562870      -10.1899716930       -4.4265709339
 C        -0.0679403877       -4.6715721608       -6.3830802985
 C        -1.4323133743       -6.7753692301       -6.2259280992
 C        -3.1849930671       -2.2484539681      -12.8461087373
 C        -0.7348310261       -2.0564287953      -13.4933443698
 C        -0.0048784795        5.5022023552      -10.6166111280
 C         1.4001656608        3.5663701203       -9.3362181105
 C        -4.2738826315        5.6353276037       -4.4476953333
 C        -5.2700687057        3.8862371618       -5.9913422475
 C        -2.3389483879       10.8597625175       -7.7516309048
 C        -4.5880693931       11.1988282211       -8.5396497382
 C        -1.4945213225        7.6724194282      -15.0419088549
 C        -3.2293637551        9.4999733768      -14.3506128695
 C        -7.9181393568        3.4503933238      -12.9955666088
 C        -6.1693475565        3.2155090757      -11.2613227472
 H        -6.2803411264        1.1865922073      -14.1591360630
 H        -4.7647966294        1.5810424133      -15.0625114904
 H        -6.4968153724        2.3356113714      -15.3492236902
 H        -7.3527808688        6.4523633864      -13.8937149391
 H        -6.3101923926        5.6778915622      -15.0665052700
 H        -5.4510574055        8.1304702094      -13.3587742901
 H        -5.5441835546        7.8651996753      -15.1287264396
 H        -1.8740799977       10.0680113113      -12.5385389627
 H        -0.3565388551        9.1600538501      -12.1367249070
 H        -0.9206045411        9.9749523448       -9.7478519565
 H        -1.6301364628        8.3584695400      -10.0385572233
 H        -5.8114796750        8.3029713335       -8.3003415207
 H        -5.8529368442        9.5337335156       -7.0644072384
 H        -6.4655835926        7.4703777096       -5.9931421299
 H        -4.9176022610        7.9156263027       -5.3191328276
 H        -3.3427736693        3.0599638772       -7.5444762980
 H        -2.4177607690        2.7804308225       -6.0918576882
 H        -1.0293945801        2.2470845131       -8.0189361032
 H        -0.3071954013        3.7178972305       -7.2838723311
 H        -0.4268237445        1.1478987763      -10.2775314781
 H         0.7623219329        1.0021959089      -11.3146153071
 H        -0.8198716874        0.6191410982      -13.2866367674
 H        -2.0329137895        1.4026044707      -12.3154981593
 H        -2.3531936274       -4.7335399435      -10.6423202945
 H        -2.7795973371       -3.1786170025      -10.0395288497
 H        -1.6457276854       -3.4305997418       -8.2607696709
 H        -0.0839827052       -3.6906232371       -9.0166911474
 H         2.1031406746       -6.0566734022       -6.1405301912
 H         2.4212687532       -5.5447128838       -7.6220551194
 H         3.8661659360       -7.3521303158       -6.7716315685
 H         3.0949080543       -8.1029952197       -8.2507051951
 H         0.5362306845      -11.2812976648       -5.5714473155
 H         1.7461945008      -12.6048516160       -5.3711098119
 H        -0.3593984435      -13.4431244474       -6.5004910102
 H         1.0797851603      -13.5204316218       -7.6825248120
 H        -3.4447174883      -12.4800472267       -6.8306784805
 H        -4.2148921849      -13.1959895478       -8.1152060662
 H        -5.8707210025      -11.3664872022       -7.2800722080
 H        -5.5028585856      -11.0807237401       -8.9230760619
 H        -4.3267802563       -6.9569424149       -9.9932839114
 H        -5.8121614474       -6.9692918017      -10.6869874987
 H        -5.2813822959       -8.9511706224      -11.9691382554
 H        -3.5805432143       -8.9118063882      -11.5342482089
 H        -8.1405186956       -5.8119285277      -13.3764085922
 H        -7.1634777587       -4.8793156378      -14.5952598130
 H        -7.0325075922       -2.8754273853      -13.0630471852
 H        -7.6431308549       -3.7712473656      -11.6880263426
 H       -10.0195761656       -0.2935882471      -10.7088879929
 H        -8.3120224953        0.1918515234      -10.4970024984
 H        -8.8209612780       -1.5744822571      -10.4689521365
 H        -8.2503702020       -1.4267007081      -14.8447096761
 H        -9.7336104696       -0.5022359340      -15.2114934400
 H        -9.7543338410       -2.2559792553      -15.5629813465
 H       -11.3902014948       -0.5732530866      -12.9213629641
 H       -11.4120920622       -2.1581146325      -12.0916850630
 H       -11.7724474418       -2.0134963740      -13.8034353135
 H        -5.4907804075       -5.7234125111      -15.5326642575
 H        -4.3121426576       -7.0192717013      -15.5643530057
 H        -3.8720596759       -5.6156752231      -14.7498986564
 H        -6.8799856242       -7.6860088848      -14.8732917013
 H        -7.0958722825       -7.7924914939      -13.1075933579
 H        -5.9192136274       -8.7687102789      -13.9478639621
 H        -7.5529677231       -8.3444037975       -7.2680433209
 H        -6.6629983576       -9.4806923826       -6.2111466271
 H        -7.3234740670       -9.9746132296       -7.8869916869
 H        -5.2716946273       -6.5819096586       -7.9561271442
 H        -3.8288349430       -7.3627927046       -7.4172839349
 H        -5.1319032853       -7.3717224033       -6.3397477816
 H        -0.2633993436      -13.0028804548      -10.9264240825
 H        -1.1252946571      -11.5563635571      -11.0669222844
 H        -1.9701320538      -13.0969755904      -11.2412738004
 H        -1.0695938255      -14.8412334371       -9.6181502299
 H        -2.6622779602      -14.5310397734       -8.7859345773
 H        -1.1912466019      -14.5262289715       -7.8965834345
 H         4.6318467834       -9.5393380094       -7.4735835831
 H         5.0076702856      -10.9533319529       -6.4951900767
 H         5.0935444210       -9.3618203648       -5.7874140927
 H         3.8453301596      -10.8996583593       -4.0412547691
 H         2.1177509556      -10.4870117617       -4.0592037191
 H         3.4411866139       -9.1895818449       -4.1592127662
 H         0.5161948999       -4.8656021003       -5.4812194476
 H        -0.9405708432       -4.1111759937       -6.0689795487
 H         0.5510711010       -4.0200332796       -7.0092084700
 H        -1.7300959305       -7.6945652766       -6.7257061481
 H        -2.4071937902       -6.2429574440       -5.9542466454
 H        -0.8801849251       -6.8136833010       -5.2536132776
 H        -3.8299577677       -1.4030978485      -12.7833576334
 H        -3.7909751852       -3.0043694949      -12.2529587388
 H        -3.1723811153       -2.6380344388      -13.8145492909
 H         0.3186178499       -1.8002175526      -13.1292954242
 H        -1.1239816142       -1.4303345923      -14.3265230198
 H        -0.7127769730       -2.9205552705      -14.1094301396
 H         0.0186959183        6.1150377534       -9.7469218555
 H        -0.8933835257        5.5405674169      -11.2106694079
 H         0.8771923758        5.6897189658      -11.2493774007
 H         2.3780652301        3.7464422204       -9.8627330371
 H         1.4239839582        2.5107952060       -9.1421693049
 H         1.5920153291        3.9728873229       -8.3099578309
 H        -3.5372335938        6.4283435036       -4.4293462101
 H        -4.1486052835        4.8014997150       -3.8249598308
 H        -5.2354971316        5.9535138185       -3.9606033571
 H        -5.5418030929        3.5355895976       -6.9989347745
 H        -6.1957861907        4.1490888706       -5.4946842783
 H        -4.8954512385        3.0126586067       -5.3532977795
 H        -1.4461216675       10.2519428899       -7.8072107956
 H        -2.7285775136       10.6792471667       -6.7270038034
 H        -2.1624241821       11.9037689960       -8.0095693221
 H        -5.4083471135       10.7959827575       -9.1466339229
 H        -4.3054969911       12.2003333600       -8.8133552254
 H        -4.8813915721       11.2561058895       -7.4546081426
 H        -1.3549529246        6.5624638436      -15.1147489588
 H        -0.5149320826        8.1257631292      -14.6338115234
 H        -1.7346810450        8.2130379973      -15.9778586373
 H        -3.7529754526        9.8742219338      -13.5269918109
 H        -3.9205993629        9.5158725388      -15.2494253942
 H        -2.4352884763       10.1979321599      -14.5263836574
 H        -8.2827647582        4.1716510951      -13.7113799886
 H        -8.3944614694        3.6540891331      -12.0712343167
 H        -8.1327162804        2.4091339950      -13.2244654964
 H        -5.4330803992        3.8678661379      -10.6837774185
 H        -5.7957759687        2.2028619469      -11.2730467734
 H        -7.1049834086        3.2196685332      -10.7169257005
 Na       -3.3327924053        4.6841360988      -11.8411840989
 Na       -1.4366465927       -8.7953503856       -8.9394281542
