232

 C        -5.8680362084        1.8924828854      -14.6170918374
 C        -5.2896725965        2.9300417478      -13.6466865650
 O        -4.1524231924        3.2100800178      -13.4677062487
 C        -6.4067120600        3.7313515668      -12.7346638399
 C        -5.9937701250        5.2504573734      -12.7572402577
 O        -5.3042596794        5.7028253558      -11.8926256712
 C        -6.2556828765        6.0406694858      -14.0566601757
 C        -5.3186605355        7.2644956183      -14.1596845397
 C        -3.7939082841        7.0202456685      -14.1848749536
 O        -3.4080049947        5.8832449221      -14.4836207636
 C        -2.6923225159        8.1489022982      -14.0888283578
 C        -2.1936151145        8.0713914222      -12.5997601319
 O        -2.2841814206        7.0287903692      -11.9233645711
 C        -1.3994837425        9.2139469261      -11.9727586825
 C        -1.6089266182        9.2541798703      -10.4691716048
 C        -3.0558226982        9.8453191896      -10.0983717145
 O        -3.9002732969        9.9839392588      -10.9490746278
 C        -3.4202135373       10.2610684959       -8.5707697382
 C        -3.7073805000        9.0046552473       -7.7664767216
 O        -2.7979452525        8.2895784543       -7.3967679369
 C        -5.1554577048        8.7017227970       -7.4694149559
 C        -5.2922844879        7.7166226405       -6.3418754899
 C        -5.0362843118        6.3300876330       -6.8292355468
 O        -5.2568482029        5.9831722730       -7.9860328687
 C        -4.3437922247        5.1733468640       -5.8595158081
 C        -2.8396536351        4.9033997219       -6.3964658219
 O        -1.9713095772        5.7043695923       -6.1739437837
 C        -2.5414135367        3.5091755481       -6.9781541433
 C        -1.2179692841        3.4331920396       -7.7967726637
 C        -1.3070427480        3.8184318158       -9.2127195382
 O        -2.3342373803        4.0368701282       -9.7622196291
 C        -0.0349091954        3.9141381645      -10.2057665239
 C        -0.4561145863        3.0212342723      -11.3592337941
 O        -1.0752489090        3.5325596655      -12.3228895731
 C        -0.2279741456        1.5181620821      -11.2355750366
 C        -1.0659133531        0.7506987156      -12.2213669534
 C        -1.6576162408       -0.4910561906      -11.5774114027
 O        -2.0897939129       -0.5019531898      -10.4201161858
 C        -1.6396102577       -1.8882866034      -12.2710864341
 C        -1.0805205048       -2.8033507086      -11.1460547471
 O         0.1354492788       -2.8317442406      -10.9731377669
 C        -1.9871516574       -3.6802519792      -10.2553764650
 C        -1.2608329887       -3.9822718950       -8.8964730080
 C        -1.4177268363       -5.4630259241       -8.4524456413
 O        -1.9542822915       -6.3000265137       -9.1758480392
 C        -0.6669010757       -5.8948596272       -7.1140765123
 C         0.5879204629       -6.8451873131       -7.6943245109
 O         0.4427204896       -7.8281481607       -8.3857825681
 C         1.9873993481       -6.4969490406       -7.2548408421
 C         2.8519240061       -7.7257681683       -7.2646876832
 C         2.3836752626       -8.7676744147       -6.2789237503
 O         1.2557311765       -8.7005005736       -5.8097121555
 C         3.2670892865      -10.0007161969       -5.8616307230
 C         2.4423331462      -11.1918195550       -6.8328600956
 O         2.6357131610      -11.1647466160       -7.9996779314
 C         1.3402470504      -11.9902376474       -6.1996874152
 C         0.5737427602      -12.8005448463       -7.2053649794
 C        -0.3376105863      -12.0340556976       -8.1691323291
 O        -0.1633096472      -10.8665252311       -8.3702586500
 C        -1.4420049757      -12.6817774811       -9.0444149412
 C        -2.7056598180      -11.8842820510       -8.8630017347
 O        -2.8012570532      -10.8284292561       -9.5388938081
 C        -3.7099587773      -12.2673339389       -7.8286999974
 C        -4.8921194052      -11.2938468898       -7.8834223295
 C        -4.5055853738       -9.8574637176       -7.6772546959
 O        -3.3574986367       -9.4875003069       -7.4097341420
 C        -5.5749431670       -8.7820497798       -7.8854731148
 C        -5.7756214634       -8.5711453978       -9.5250306540
 O        -6.5695125612       -9.2881049038      -10.0655194759
 C        -4.9516365125       -7.5258011447      -10.3113271450
 C        -4.5340804930       -8.2188912569      -11.6089143026
 C        -4.0573730635       -7.2148556697      -12.6807353418
 O        -2.9483514850       -6.7685289257      -12.7007872167
 C        -5.2335640917       -6.7186000767      -13.6466072140
 C        -5.9457760005       -5.4172209412      -12.9795438564
 O        -5.3330262774       -4.6871173772      -12.2100654622
 C        -7.3703881839       -5.0432546476      -13.3745873961
 C        -7.8157186842       -3.6478489005      -12.8086661170
 C        -9.3074262606       -3.2532218231      -13.1800213233
 O       -10.1920523486       -4.0677540345      -13.2641815916
 C        -9.6912003144       -1.6863590506      -13.2917707966
 C        -8.8750047341       -0.7084915459      -12.4283806571
 O        -8.2502360530        0.1285890407      -13.0398683768
 C        -8.8579331941       -0.8273251281      -10.9002531367
 C        -9.4913912143       -1.4462989193      -14.7710340802
 C       -11.2658349791       -1.5483122602      -13.0171975164
 C        -4.6914393221       -6.0955594526      -15.0704436097
 C        -6.2752412691       -7.8686357441      -13.9425183937
 C        -6.8896981270       -9.1589624129       -7.3206148013
 C        -5.0010153629       -7.4128127957       -7.4555817569
 C        -1.2131567619      -12.5202976713      -10.5775959340
 C        -1.7473403533      -14.2017967791       -8.6982353754
 C         4.6770362028       -9.9178449776       -6.4440035134
 C         3.1366345100      -10.1739087473       -4.3198884187
 C        -0.2196095097       -4.6276269021       -6.2975091403
 C        -1.5080110852       -6.8834276905       -6.2021628951
 C        -3.0414081438       -2.3574737994      -12.6400682788
 C        -0.7382887516       -1.9128461132      -13.4857069939
 C         0.1545714097        5.3554229791      -10.6815961748
 C         1.2916023483        3.6089099808       -9.5221686832
 C        -4.1679648401        5.8137417243       -4.4911589399
 C        -5.2368100273        3.9486735920       -5.9851854406
 C        -2.2442342205       11.1301741941       -7.8938267657
 C        -4.6541342799       11.1987031889       -8.5798058774
 C        -1.5369321012        7.6952741777      -15.1015584091
 C        -3.0992012004        9.5936609627      -14.4238150534
 C        -7.8117062163        3.5112500251      -13.2729522977
 C        -6.1875197466        3.1185808412      -11.3212230516
 H        -6.1917267617        1.0093892863      -14.1165151430
 H        -5.0388513540        1.6468847919      -15.2936872960
 H        -6.7935825481        2.2705844154      -14.9346407612
 H        -7.2521367276        6.4431621312      -13.8602832347
 H        -6.3890707711        5.5203282998      -15.0064003328
 H        -5.6050972899        7.8813624418      -13.2806275293
 H        -5.6226798529        7.8259911056      -15.0414804503
 H        -1.6870239972       10.1076607859      -12.5130359852
 H        -0.2908450793        8.9508442118      -12.1854423702
 H        -0.7784515809        9.8897002958       -9.9696533513
 H        -1.4265037267        8.2316486334      -10.0906268977
 H        -5.6573148813        8.5307928150       -8.5081268448
 H        -5.6443306115        9.5595145832       -7.0835621964
 H        -6.3044981473        7.6551594674       -6.0408459554
 H        -4.7062018278        7.9979264261       -5.4021974910
 H        -3.4093110106        3.0996801947       -7.5727110144
 H        -2.4633001624        2.8616253167       -6.0739618088
 H        -0.7358007406        2.4192685162       -7.7829243400
 H        -0.5319639907        4.1260185759       -7.4083295871
 H        -0.2450188728        0.9676681908      -10.2068730831
 H         0.7717926778        1.2367316742      -11.4648546128
 H        -0.4582388613        0.4875706304      -13.1235212107
 H        -1.8695376770        1.4376878517      -12.6566583752
 H        -2.1960786682       -4.6582541731      -10.6252972211
 H        -2.9887676322       -3.2396488920      -10.0418750106
 H        -1.6907093673       -3.3017041943       -8.1196451801
 H        -0.1756259235       -3.6966134955       -9.0493314272
 H         2.0056196417       -5.8728722145       -6.3878296020
 H         2.3954908408       -5.7750945844       -7.9040804252
 H         3.9230734015       -7.4825804759       -7.2251934915
 H         2.5890567105       -8.2152505604       -8.2184382665
 H         0.6404611974      -11.3129394745       -5.7174451701
 H         1.6995452889      -12.6170770736       -5.4142913552
 H        -0.1556565696      -13.4087909278       -6.5755082065
 H         1.2217412681      -13.4886502463       -7.7750256509
 H        -3.2042267864      -12.2850253674       -6.8477196202
 H        -4.0656485071      -13.3108913008       -7.8611935644
 H        -5.6627554198      -11.6737850481       -7.0679734956
 H        -5.5461536378      -11.2980663866       -8.7471354484
 H        -4.0021602717       -7.1377269530       -9.8047311448
 H        -5.5203908004       -6.5701232335      -10.5245444865
 H        -5.3857672099       -8.8556474372      -11.8999200140
 H        -3.6772456152       -8.8627889332      -11.4969962103
 H        -8.0929387483       -5.8477774535      -12.9237988149
 H        -7.5695035107       -5.0955722431      -14.4929730429
 H        -7.1336692335       -2.9639568498      -13.2078953249
 H        -7.8066722346       -3.5402674033      -11.6767088474
 H        -9.7732494859       -0.5624758973      -10.3881037413
 H        -8.1185133550       -0.1523836451      -10.5425855462
 H        -8.5292898285       -1.8504629965      -10.6395284197
 H        -8.4990851278       -1.2488554749      -14.8482453752
 H       -10.1064690681       -0.6600886122      -15.2558481143
 H        -9.7538039826       -2.3771469441      -15.2996640000
 H       -11.6220577253       -0.5960001344      -13.2083165765
 H       -11.4781986582       -1.8467104195      -11.9833243206
 H       -11.7207010638       -2.2440716969      -13.7001581866
 H        -5.4500753705       -5.5559017700      -15.5200090636
 H        -4.3106551920       -6.8404360171      -15.8103798480
 H        -3.8450555566       -5.5034601102      -14.8115176189
 H        -7.0375308809       -7.5246683202      -14.7042228292
 H        -6.8605105378       -8.0995269916      -13.0488408593
 H        -5.7793622991       -8.7614733608      -14.2603007587
 H        -7.6673914856       -8.4496816692       -7.6084367871
 H        -6.7607596490       -9.2419837697       -6.2778186695
 H        -7.1420545853      -10.0970037521       -7.7668486520
 H        -5.7826589190       -6.6788279911       -7.6184700465
 H        -4.0922550842       -7.0822773254       -7.9685751674
 H        -4.6790246875       -7.5486867542       -6.4334117856
 H        -0.2246848039      -12.9664981962      -10.8631514220
 H        -1.1132417991      -11.4863249074      -10.7905184094
 H        -1.9819220576      -12.9192507103      -11.2306344210
 H        -1.1976675857      -14.7031816391       -9.4480727473
 H        -2.8493554781      -14.3439523787       -8.8482277322
 H        -1.3687792834      -14.4751134373       -7.7037845705
 H         4.5765774119       -9.7391522668       -7.4908666641
 H         5.1688826714      -10.8904740748       -6.4274938216
 H         5.2836424199       -9.1861922577       -5.9459446829
 H         4.1210957184      -10.6760182928       -4.0399509492
 H         2.3987484929      -10.9401679156       -4.1418939503
 H         3.0407265347       -9.2366853818       -3.7724612686
 H         0.0885470781       -4.9885882797       -5.2981178800
 H        -1.0885942773       -3.9405777498       -6.1353724965
 H         0.6185453549       -4.0793294948       -6.6520957139
 H        -1.6036403608       -7.7370729583       -6.8912751765
 H        -2.4481759018       -6.5999606815       -5.8985309785
 H        -0.9369385286       -7.0527216344       -5.2639755785
 H        -3.8911605276       -1.6425363901      -12.6488682764
 H        -3.4227548537       -3.0358099579      -11.9288812673
 H        -3.0725319101       -2.9416888467      -13.6098976319
 H         0.3124361378       -1.8329730031      -13.1371282578
 H        -0.9829421758       -1.3134192034      -14.2944722100
 H        -0.8115995132       -2.8756514237      -14.0016700650
 H         0.2148696523        5.9989768024       -9.8347212566
 H        -0.6113448043        5.5087225800      -11.3880709427
 H         1.1307167852        5.3784572774      -11.1793499608
 H         2.2019343490        3.9659244544      -10.0159486205
 H         1.4290137253        2.5339124504       -9.3501895053
 H         1.4585197079        4.0071973306       -8.4879429127
 H        -3.4062055671        6.5933414222       -4.5533152101
 H        -4.1200691363        5.1176675392       -3.6737209820
 H        -5.0967911413        6.2510737543       -4.2445503079
 H        -5.4863819415        3.7972741723       -7.0593391689
 H        -6.2008172481        4.2656813260       -5.5746528767
 H        -4.9743117725        3.0422298252       -5.5294630807
 H        -1.4302304729       10.4687135675       -7.8817711256
 H        -2.5493350241       11.3599030277       -6.8825615227
 H        -2.0227574461       12.0151211716       -8.5303674294
 H        -5.5285772129       10.6735135089       -8.8852807170
 H        -4.5267785465       11.9924997070       -9.3043670871
 H        -4.7221061873       11.6959344487       -7.5899218701
 H        -1.6571311573        6.6258914638      -15.3845217727
 H        -0.5876248429        7.7940137354      -14.6611270939
 H        -1.6158721761        8.3810266835      -15.9293638342
 H        -3.6272732218       10.1509786729      -13.6064206981
 H        -3.7668574856        9.6089711713      -15.2794544577
 H        -2.1937039388       10.1030046781      -14.6711965236
 H        -7.9280239419        4.0165038998      -14.2254840435
 H        -8.5124255962        3.9694633421      -12.5890980355
 H        -7.9924635565        2.4484983648      -13.2778341972
 H        -5.2831654501        3.5041622006      -10.9426152362
 H        -6.1120545150        2.0584331460      -11.4337727425
 H        -6.9798830209        3.2043912168      -10.5925703241
 Na       -3.3303977442        4.6542169752      -11.8719273746
 Na       -1.5769448069       -8.9580804369       -8.9512021254
