232

 C        -5.7991611119        1.6581514210      -14.4337899219
 C        -5.4160596470        2.8207690611      -13.4722967052
 O        -4.2903140994        2.9355515325      -13.1290053252
 C        -6.5704411953        3.7835445533      -12.8439041196
 C        -5.9696246497        5.2158572986      -12.6667492793
 O        -5.1739543847        5.4712111913      -11.7956488121
 C        -6.3743824758        6.2250019308      -13.7472896263
 C        -5.2585626133        7.3241510193      -13.7784208955
 C        -3.8263228360        6.9624163443      -14.0337725944
 O        -3.4547234950        5.8075151505      -14.3980623739
 C        -2.7935511834        8.0861802410      -13.8995914588
 C        -2.2337522442        8.0820702187      -12.4474289837
 O        -2.2972365313        6.9979915430      -11.8053691584
 C        -1.3095555525        9.1812236727      -11.9686272235
 C        -1.7759498946        9.3045295294      -10.5250608846
 C        -3.1748897857        9.9617301939      -10.3960214836
 O        -4.0154827729        9.7346016188      -11.2313102717
 C        -3.4321157461       10.8076159147       -9.0375316110
 C        -3.6026462857        9.6040867324       -7.9585575784
 O        -2.5466309596        9.0567673331       -7.6184703789
 C        -4.8881025446        9.0089542689       -7.6229627891
 C        -4.8230563405        7.9397313219       -6.2974589195
 C        -4.7651420795        6.4177011237       -6.6934832548
 O        -5.2276146125        6.0395302598       -7.7317613859
 C        -4.1586015092        5.4314867531       -5.5620063098
 C        -2.8158744035        5.1177526324       -6.0887534372
 O        -1.8773719549        5.8551790056       -5.7510351904
 C        -2.7176882188        4.0110003581       -7.2003327399
 C        -1.3799646077        4.0657851373       -8.0069931132
 C        -1.4643197161        3.9524181368       -9.5284047174
 O        -2.4892692706        4.0293418802      -10.0920623666
 C         0.0248313555        3.8786436663      -10.3659438364
 C        -0.3200877154        2.9716196062      -11.6078841882
 O        -0.8434862351        3.4091049609      -12.6301854433
 C        -0.1142553451        1.5142886331      -11.3692963650
 C        -0.9003303952        0.6300560980      -12.3441887951
 C        -1.5473659509       -0.5924890435      -11.6395373003
 O        -2.0977691974       -0.4008083420      -10.5316596317
 C        -1.5768168600       -2.0043686342      -12.1265008919
 C        -1.1094264731       -2.9194089799      -10.9414796200
 O         0.0753433507       -3.0017765331      -10.6978591111
 C        -1.9918548998       -3.8576862932      -10.1998475051
 C        -1.2677890488       -4.2954600280       -8.8394914757
 C        -1.3826325034       -5.7885375861       -8.4654344677
 O        -1.9155447454       -6.5588776097       -9.2896152540
 C        -0.7261201373       -6.3324423891       -7.1726282363
 C         0.4584765774       -7.2652506452       -7.7848193828
 O         0.2720868824       -8.3257001758       -8.3363310690
 C         1.8836255336       -6.7769934811       -7.5945898887
 C         2.8995632823       -7.8624845033       -7.3931325296
 C         2.4207415388       -8.8048452114       -6.2766666944
 O         1.5402870754       -8.5740967022       -5.4547127423
 C         3.3056644427      -10.0184450452       -6.0139615638
 C         2.7733763415      -11.1038837994       -6.9997189601
 O         3.3021361960      -11.3751437347       -8.0363762432
 C         1.6186484647      -11.9041531754       -6.4603881556
 C         0.8143660906      -12.7476130749       -7.4242583228
 C        -0.4394771306      -12.0512506754       -7.9611789206
 O        -0.6444845799      -10.8732806818       -7.8975997242
 C        -1.4074929755      -12.8751357820       -8.9068689959
 C        -2.6721569421      -11.9818523296       -8.9199151613
 O        -2.9268378725      -11.2505352007       -9.9220622851
 C        -3.6327342871      -12.0595664488       -7.7721364621
 C        -4.8967429808      -11.1832851212       -7.9024894995
 C        -4.7481798937       -9.7126721505       -7.6109088218
 O        -3.7067821187       -9.2771157883       -7.1034210015
 C        -5.8530156229       -8.6003993968       -7.8750831110
 C        -5.8877901791       -8.4590398473       -9.4228416749
 O        -6.6283469532       -9.2794892950      -10.0260862772
 C        -4.8927267482       -7.5559393746      -10.1079614452
 C        -4.6362954890       -8.0996324906      -11.5422870133
 C        -4.1697503170       -7.0178180051      -12.6713825708
 O        -2.9957528355       -6.9441016414      -12.9235316973
 C        -5.1707200979       -6.3670283160      -13.6818888593
 C        -6.0392602541       -5.2848845136      -12.9049329050
 O        -5.3699083594       -4.3946317132      -12.4472457946
 C        -7.5401731625       -5.0861125396      -13.1846594267
 C        -7.9766904584       -3.6038443582      -13.5373826556
 C        -9.4435121436       -3.3060163378      -13.1939175656
 O       -10.3280543658       -4.1616985210      -13.0959684178
 C        -9.8364451376       -1.8327758535      -13.2114503494
 C        -8.6653817874       -1.1276869370      -12.4501931480
 O        -7.8966108994       -0.3778717004      -12.9536048004
 C        -8.6653427178       -1.3191627866      -10.9362261359
 C        -9.7671556450       -1.3759428780      -14.7422684848
 C       -11.2742668994       -1.5573214637      -12.6153149348
 C        -4.5729043562       -5.4958009073      -14.8611708481
 C        -6.0987715667       -7.4271408043      -14.2633187320
 C        -7.2432853511       -9.2379125994       -7.4179679581
 C        -5.6867653231       -7.2592687323       -7.0630088274
 C        -0.7886557685      -12.7643174243      -10.3116737264
 C        -1.6513466680      -14.2262182396       -8.4088237360
 C         4.8643819374       -9.8947771686       -6.3210527417
 C         3.1953740479      -10.4746688733       -4.5342689607
 C        -0.1811719706       -5.2784415267       -6.3038565505
 C        -1.7941516822       -7.0960247866       -6.3196633254
 C        -3.0599025732       -2.2509439645      -12.3830371178
 C        -0.5586515119       -2.3281285049      -13.2486605233
 C         0.1150024470        5.4109595565      -10.7915530389
 C         1.2691047710        3.3258634106       -9.5784552173
 C        -4.1526520833        6.0622847796       -4.1442997482
 C        -4.9473945350        4.1109503298       -5.5176054842
 C        -2.0451333612       11.4682969825       -8.6230294253
 C        -4.5265281477       11.8124255698       -9.0894198310
 C        -1.6116961678        7.8465885812      -14.9182487579
 C        -3.3339989364        9.4760013878      -14.2521107123
 C        -7.8240445235        3.7299174773      -13.7927599040
 C        -6.8027066547        3.2583870085      -11.3697925440
 H        -6.7872789998        1.2695248690      -14.1942779647
 H        -5.1093429972        0.7976182788      -14.1668562148
 H        -5.9007091707        2.0726843612      -15.4265651145
 H        -7.2890638170        6.7792441014      -13.4601986017
 H        -6.6242700097        5.7772625891      -14.7329160667
 H        -5.4136617420        7.8103006189      -12.7925477767
 H        -5.5661325743        8.1275206747      -14.4669194269
 H        -1.2840547252       10.0720397962      -12.5808723441
 H        -0.3114547344        8.6396231355      -12.0191199715
 H        -0.9355426028        9.7466442743       -9.9033783871
 H        -1.8331452303        8.2693576325      -10.0473347284
 H        -5.2873690638        8.3845515514       -8.5586298581
 H        -5.5768469955        9.8065047804       -7.4988973984
 H        -5.6226871062        8.1187226186       -5.6587588330
 H        -3.8762903003        8.0136358876       -5.6632646563
 H        -3.5860680001        4.1339484451       -7.8981741835
 H        -2.7299514978        3.0653719506       -6.6474875751
 H        -0.6477840141        3.2794734486       -7.6349702717
 H        -0.9228914919        5.0198510705       -7.8586489165
 H        -0.3751324797        1.0541541167      -10.3765210086
 H         0.9013033950        1.3089512960      -11.4693084759
 H        -0.4446965277        0.4030429641      -13.2957676255
 H        -1.7000497062        1.2301127128      -12.7582902526
 H        -2.1237737758       -4.6470472949      -10.8753052181
 H        -2.9579320842       -3.3200441385       -9.9200290498
 H        -1.6062961495       -3.4315341218       -8.0761458932
 H        -0.1952429031       -4.0637861929       -9.0773300334
 H         1.8553039711       -6.2098624821       -6.6372461257
 H         2.2110742128       -5.9873966895       -8.2574045505
 H         3.8559024518       -7.4599109517       -6.9923243103
 H         3.0803246382       -8.4755221443       -8.3167200616
 H         0.9684411792      -11.2219401003       -5.8269817016
 H         2.0637872936      -12.5087237212       -5.7362380076
 H         0.4906491562      -13.7331213381       -7.0174967267
 H         1.4661409609      -12.8746916947       -8.3595681656
 H        -3.0984638173      -12.0018648039       -6.8566705807
 H        -3.9519386727      -13.1175245874       -7.7121099970
 H        -5.6865701556      -11.3847009430       -7.0405397578
 H        -5.4502316633      -11.3987284866       -8.8341281695
 H        -3.9055940029       -7.4988811943       -9.5279122953
 H        -5.3148794951       -6.5995371683      -10.0718311124
 H        -5.5939144030       -8.4898821850      -11.8873323525
 H        -3.8787523285       -8.8703066131      -11.5236017861
 H        -8.1254168478       -5.2222892873      -12.1788947796
 H        -7.9826489037       -5.9096741771      -13.8740027823
 H        -7.9229303291       -3.5095653819      -14.5733839978
 H        -7.4307925709       -2.8193449435      -12.9630417262
 H        -9.0291343168       -0.4588852739      -10.3348774507
 H        -7.6766951248       -1.4960462647      -10.5627908300
 H        -9.1625482352       -2.3247482706      -10.7553841472
 H        -9.2265686392       -1.9721719210      -15.4353005252
 H        -9.4853494231       -0.2784824832      -14.7720830064
 H       -10.8349543106       -1.2371890110      -15.0390987201
 H       -11.6443145860       -0.6092310817      -12.8900926906
 H       -11.3091100144       -1.5984608124      -11.5534753608
 H       -11.9460388663       -2.3018822998      -13.1281648976
 H        -5.3648997738       -5.2634299928      -15.5228747604
 H        -3.9078781503       -6.1104070761      -15.5123744021
 H        -4.1489416377       -4.6596395474      -14.4419448096
 H        -6.3254372704       -7.0355894115      -15.2591729408
 H        -6.9984841938       -7.5533990585      -13.7705425994
 H        -5.5708522442       -8.3926579462      -14.3664390514
 H        -8.0381270838       -8.4783720029       -7.6459345277
 H        -7.2238032696       -9.6568411577       -6.4272423913
 H        -7.4100500338      -10.0441226070       -8.1570202472
 H        -6.4327819017       -6.5386980066       -7.4032920316
 H        -4.7416795570       -6.8910676856       -7.4285675625
 H        -5.6827034366       -7.3924887757       -6.0215928362
 H         0.2454910135      -13.1041107151      -10.2998334755
 H        -0.9022059213      -11.7784872739      -10.7197030939
 H        -1.3856676327      -13.2733313495      -11.0081600942
 H        -0.8721117891      -14.8938024399       -8.5399837562
 H        -2.3621985884      -14.5604550443       -9.1651410212
 H        -1.9455566349      -14.1067616633       -7.4007081223
 H         4.9941914209       -9.5465442437       -7.3130778186
 H         5.4264335568      -10.7999968383       -6.3804471059
 H         5.3224263605       -9.2235928257       -5.6136202861
 H         3.9602812059       -9.9883936581       -3.8850214719
 H         3.2158092206      -11.5451577912       -4.4519489019
 H         2.1784539966      -10.2414298780       -4.1934567782
 H         0.2263234267       -5.7481026167       -5.4124997089
 H        -1.0401651203       -4.6244785481       -6.0756155814
 H         0.5876075248       -4.6666706726       -6.6811877449
 H        -2.5897336904       -7.4468444320       -7.0618897889
 H        -2.1795315637       -6.3608298150       -5.5991524111
 H        -1.4637821194       -8.0149477038       -5.7359113437
 H        -3.2858148271       -2.0925281652      -13.4398959208
 H        -3.6502682023       -1.6400761248      -11.8214143678
 H        -3.4131024436       -3.2902904181      -12.2572882252
 H         0.4585861134       -2.3329510176      -12.8837609922
 H        -0.5382018773       -1.4856293756      -13.9608779772
 H        -0.6459028202       -3.4005178826      -13.7084564282
 H         0.6108002969        5.7932606170       -9.9106983013
 H        -0.8796384216        5.8089017824      -10.9567585212
 H         0.8012056894        5.5161745678      -11.6264928081
 H         2.2077072997        3.6689849216       -9.9986629827
 H         1.2223235143        2.2365538036       -9.3114066917
 H         1.3687234414        3.8812034718       -8.6178502672
 H        -3.2259919011        6.6989582857       -4.0671386087
 H        -3.7239984427        5.2215962242       -3.5266966484
 H        -5.0434821269        6.5305363482       -3.7757056265
 H        -5.0485434083        3.7343336517       -6.5816566315
 H        -6.0104334919        4.2392121249       -5.1703933196
 H        -4.3592615132        3.3724330218       -5.0300092191
 H        -1.3947219973       10.6758580438       -8.2762981356
 H        -2.3083020186       12.1906697089       -7.8685774071
 H        -1.6991145366       12.0941897562       -9.4855432096
 H        -5.3572107278       11.6109144564       -9.7487737356
 H        -4.1124391213       12.7489901547       -9.4936399507
 H        -4.7769408706       12.0320543801       -8.0432993913
 H        -0.9598202709        7.0698809083      -14.3914031126
 H        -1.1233511314        8.8078543630      -15.1336841661
 H        -2.0535234832        7.3269850662      -15.8502995924
 H        -4.1297562849        9.7693437167      -13.5249799199
 H        -3.8366983561        9.4839657878      -15.1577483999
 H        -2.4794979321       10.0978899979      -14.3043196472
 H        -7.6972845752        4.2951344223      -14.7055506008
 H        -8.6569246238        4.1690719413      -13.2460742878
 H        -8.0550831929        2.7143994922      -14.0630267354
 H        -5.9282305310        2.8623025716      -10.9942390604
 H        -7.5752622258        2.4464245461      -11.3667773978
 H        -7.3307966702        3.8868383130      -10.6383450112
 Na       -2.9516566546        4.6054888836      -12.4468188092
 Na       -1.9540535314       -9.0997899783       -8.7537326648
