232

 C       -22.1427027582       -7.6398802771       -3.1286593143
 C       -21.0192336426       -6.6436504799       -3.5003478079
 O       -20.0627883154       -6.5648148742       -2.7279726123
 C       -21.1043808008       -5.7317552018       -4.7717433519
 C       -20.2908122193       -4.3772564715       -4.6498082710
 O       -20.1549087067       -3.7883537700       -3.5963385675
 C       -19.9746488979       -3.6322359953       -6.0180758976
 C       -18.5470382512       -3.7021609282       -6.5900522580
 C       -17.5134719593       -4.1410183426       -5.4712057681
 O       -17.7258313458       -5.1250013512       -4.8240050861
 C       -16.2225249229       -3.2602307067       -5.1347618285
 C       -16.3513452493       -2.9025083835       -3.5875083417
 O       -17.4529368005       -2.5665854245       -3.1260035976
 C       -14.9748854435       -2.7935329976       -2.7670712800
 C       -15.3635201161       -2.4541536475       -1.2715138943
 C       -15.9392994147       -3.6138096486       -0.3623978924
 O       -17.0233417923       -4.1100490224       -0.5738837239
 C       -15.1007052491       -4.0786459498        0.8497372415
 C       -13.6209361229       -4.2985358823        0.3918741660
 O       -12.8522565757       -3.3897152906        0.4397745058
 C       -13.2471589176       -5.6663663908       -0.0789431996
 C       -12.0264564130       -5.7141887550       -1.0607648131
 C       -12.4694657510       -6.2174173125       -2.4277041070
 O       -13.5189039683       -5.8664796963       -2.9374870370
 C       -11.6711364776       -7.2723102112       -3.1311378597
 C       -10.1829352881       -6.7133989970       -3.6122670296
 O        -9.8047291148       -5.7090030595       -3.0770193693
 C        -9.4347856938       -7.5120927915       -4.6846476231
 C        -7.9312096033       -7.3719460004       -4.1656136672
 C        -7.4579182273       -5.9679489635       -4.5177991320
 O        -8.0083007431       -5.2983838606       -5.3873484845
 C        -6.1184121956       -5.4992362884       -3.9291632289
 C        -5.0605139399       -6.1172541170       -4.9076654163
 O        -4.8700632906       -7.3020127571       -4.9275124693
 C        -4.2231927227       -5.1808979555       -5.7332819384
 C        -2.7232393735       -5.1943566661       -5.2299542286
 C        -1.9722671459       -3.9478013826       -5.8175772550
 O        -2.6713917678       -2.9725083950       -6.0347823788
 C        -0.4525515936       -4.0445228225       -6.0506763376
 C        -0.3799262419       -4.6607572442       -7.4913926044
 O         0.0619615691       -5.7658785051       -7.6075159282
 C        -0.7188688751       -3.8387587268       -8.7353826952
 C        -0.4225476805       -4.7275701039       -9.9182307103
 C         1.1308172842       -4.9794350905      -10.0889792906
 O         1.9834198595       -4.4592233501       -9.4610456225
 C         1.6358610817       -5.7992642686      -11.3949593995
 C         1.5718227213       -4.5464469124      -12.4575689043
 O         0.7717669951       -4.5826531914      -13.3539465840
 C         2.4944654967       -3.3449120533      -12.2104742274
 C         2.2867454132       -2.3303700125      -13.4132870392
 C         3.0425688487       -1.0166273293      -13.1577458473
 O         2.5021786837       -0.1031683890      -12.5440561405
 C         4.4942014616       -0.6816824847      -13.6482482723
 C         4.4960142135        0.4062160808      -14.7745770996
 O         5.0219464575        0.1117672965      -15.8722176583
 C         3.7550275704        1.8305741315      -14.7231715260
 C         4.1658407829        2.6872489108      -13.5308727780
 C         5.7038866257        3.0726910260      -13.4575343123
 O         6.4999052520        2.6539142998      -14.2816448295
 C         6.2791561341        4.1779472830      -12.6037149142
 C         6.6343707638        5.5094233456      -13.5345998741
 O         6.8315064926        6.4819124035      -12.8799754561
 C         7.0198636052        5.4084774397      -14.9580004327
 C         6.8663839107        6.6378247929      -15.8558913875
 C         6.5264240564        6.2384470259      -17.3401302394
 O         6.5703610616        4.9941218742      -17.6048124882
 C         6.1612373334        7.2902076191      -18.3593186590
 C         7.3691431587        7.2185995867      -19.4248266292
 O         8.3952555987        7.7786969393      -19.1394934690
 C         6.9465645736        6.6613958462      -20.7915482345
 C         8.0349118486        6.4291732357      -21.8805103514
 C         7.8476565894        4.9626724502      -22.7584465447
 O         6.7827020156        4.4255826679      -22.8779954517
 C         9.1253522972        4.3484917301      -23.3876820674
 C         9.4125441630        3.0229560929      -22.7073497789
 O         9.9586919600        2.1426772391      -23.3179020994
 C         9.4785167882        3.0218836495      -21.1074674011
 C         9.3055055000        1.6718512531      -20.5659094579
 C         8.1927300506        1.5861587608      -19.4935181821
 O         7.9475198615        2.5958007481      -18.8601286176
 C         7.5956200793        0.2502441747      -19.0797979271
 C         6.0268290661        0.6046160781      -19.1921825904
 O         5.5432785307        1.3616037081      -18.3516487460
 C         5.1534727818       -0.1061107781      -20.2311003176
 C         8.0310248707       -1.0011536095      -19.9583902560
 C         7.8809286422        0.0255693933      -17.5720027928
 C         8.9523448061        4.2528152557      -24.9301261171
 C        10.3610750789        5.3466000491      -23.0046023904
 C         4.7020750906        6.9137286044      -18.8110174499
 C         6.0913884508        8.7235116986      -17.8218808361
 C         5.2349301260        4.7342577590      -11.6316564181
 C         7.6465231226        3.8680878508      -11.9060085489
 C         5.3464763911       -0.3061591573      -12.3538612058
 C         5.1353596811       -2.0081158407      -14.3441402805
 C         2.9926357166       -6.4104466483      -11.2466227071
 C         0.5254723986       -6.9181946585      -11.6436646910
 C         0.2332633480       -2.5999039295       -6.1191114539
 C         0.3244842049       -4.9121371899       -5.0115183418
 C        -6.1853312717       -3.9583605069       -3.8965816525
 C        -5.8083443309       -5.9184566014       -2.4532020485
 C       -11.2982328332       -8.4345419063       -2.0944719804
 C       -12.4721492187       -7.8814956650       -4.2787801751
 C       -15.2066100297       -2.9458002767        1.8870152707
 C       -15.7505025385       -5.3327595459        1.4971333903
 C       -14.9713045373       -4.0826840753       -5.3981215010
 C       -16.1696451921       -1.9545868602       -5.8659249224
 C       -20.4260582404       -6.7217943719       -5.8442192083
 C       -22.5240808274       -5.3355553078       -5.1550645435
 H       -22.5147678549       -8.2508192734       -4.0176511336
 H       -22.9924651190       -6.9715327208       -2.9162308564
 H       -21.7809860742       -8.3358623373       -2.3404548478
 H       -20.1547894008       -2.5899157921       -5.8275244194
 H       -20.6337008225       -4.0351875295       -6.7947789743
 H       -18.1090631670       -2.7501328203       -7.0362419256
 H       -18.5042368166       -4.4305216593       -7.3981566270
 H       -14.2475294886       -2.0195102754       -3.0855194433
 H       -14.4465043311       -3.7394774641       -2.6864016516
 H       -16.0994803802       -1.6211599979       -1.4212021115
 H       -14.5239026939       -1.9752211689       -0.7723159605
 H       -14.0874997645       -6.2638872111       -0.4459443542
 H       -12.9726031460       -6.2269187534        0.8011963245
 H       -11.2924542293       -6.3489726757       -0.6569705349
 H       -11.6356870767       -4.7026795934       -1.1545203517
 H        -9.5198728924       -6.8928596048       -5.5929718014
 H        -9.7960128405       -8.5621721419       -4.8772885163
 H        -7.3415309400       -8.1230492743       -4.6495877526
 H        -7.8680375257       -7.4370127095       -3.1153447813
 H        -4.5161922993       -4.1175425044       -5.7128074532
 H        -4.1626671644       -5.4500552369       -6.8081933612
 H        -2.1636087475       -6.1385597729       -5.4848442817
 H        -2.7491924905       -5.0529677755       -4.1648368877
 H        -0.1447815180       -2.9721200307       -8.7886200440
 H        -1.8489990122       -3.5702409598       -8.7169108942
 H        -0.6972296438       -4.0940304940      -10.7753713193
 H        -0.9746676730       -5.7197051271       -9.9637362163
 H         3.4660959200       -3.8013535296      -12.2381806081
 H         2.3102754438       -2.7441453883      -11.2910260302
 H         1.1753248328       -2.1610628073      -13.6012900649
 H         2.7355882947       -2.9391660418      -14.2281090848
 H         2.7357195738        1.6233535548      -14.5608439687
 H         4.0189016987        2.3180652262      -15.5954238434
 H         3.7366390439        2.2832085987      -12.5715157505
 H         3.6826611283        3.7326306305      -13.6673495875
 H         6.5005796353        4.6461505014      -15.4257916225
 H         8.0508196384        5.1124962998      -14.8668597551
 H         7.7053242525        7.3802941187      -15.8012838439
 H         5.9485797519        7.1982492812      -15.5500570132
 H         6.1483991836        7.3248918278      -21.1628206706
 H         6.4156228268        5.7665229979      -20.4962496137
 H         9.0070618400        6.6352626338      -21.4793833849
 H         7.7614168520        7.2571747717      -22.5815986319
 H         8.8642515686        3.8006909518      -20.6480277642
 H        10.5303800323        3.2657944907      -20.9544790765
 H        10.1864186543        1.4269624524      -19.9877548857
 H         9.1784099174        0.9208137394      -21.3839015604
 H         4.5088179146       -0.8789368691      -19.6408747745
 H         5.7413492707       -0.6680027938      -20.9288736025
 H         4.4703974804        0.5169882578      -20.8153951298
 H         7.2507591109       -1.6393968860      -19.5437466157
 H         9.0629999421       -1.2680036452      -19.6994385792
 H         7.8021580846       -0.7919589669      -21.0317933799
 H         8.6187180318       -0.7219074409      -17.2612702211
 H         6.9714298088       -0.3484258897      -17.1555559022
 H         7.9981731908        1.0079873335      -17.1203953591
 H         8.0033398505        4.6553720262      -25.2704725492
 H         8.9447437179        3.2489767887      -25.2882933731
 H         9.7967719736        4.5954597370      -25.4161881693
 H        11.3322285442        4.9636596086      -23.4432809363
 H        10.3986290296        5.5688958651      -21.8984478561
 H        10.1983680152        6.3862369578      -23.3386668838
 H         4.1125499192        6.8694712658      -17.9551266348
 H         4.8572110692        5.9535433299      -19.2938839198
 H         4.2580815893        7.6918822279      -19.4365382502
 H         7.0816284653        9.0977002994      -17.5770404731
 H         5.4381375655        8.8423523288      -16.9666488408
 H         5.6689121859        9.3539149838      -18.6239635387
 H         5.7594014153        5.5960078089      -11.1739638918
 H         4.7671290324        4.2557102629      -10.7810320645
 H         4.4466475078        5.1395859066      -12.2378698130
 H         7.4102681241        3.2985478875      -10.9788412775
 H         8.0408321878        4.8401694754      -11.4968005055
 H         8.2562347593        3.3038124709      -12.5648433690
 H         6.0968187983        0.5165921039      -12.4403578575
 H         6.0068689912       -1.0630371281      -11.9278453329
 H         4.6941197464        0.0245368560      -11.6199046077
 H         5.1204213797       -2.8956650471      -13.7006281366
 H         6.2379907439       -1.7508757286      -14.6077818580
 H         4.5876434681       -2.1920276039      -15.2676970676
 H         3.0063961581       -7.2194261399      -10.5144292268
 H         3.6050361125       -5.6628073734      -10.7024509966
 H         3.4394105191       -6.7851893452      -12.1511884399
 H        -0.4476583642       -6.5272511203      -11.6834980270
 H         0.6978480918       -7.5843607067      -10.7962105201
 H         0.5904560768       -7.4551168737      -12.5728174097
 H         0.2037250829       -2.1295799708       -5.1391614655
 H        -0.2246740031       -1.9600792079       -6.9021826836
 H         1.2818906132       -2.6343291233       -6.5155621497
 H        -0.3128147402       -5.6968468064       -4.6869540088
 H         0.8091846226       -4.3148806753       -4.1872113267
 H         1.1602208251       -5.3832037880       -5.5854239491
 H        -6.4950302056       -3.4527903772       -4.8244955121
 H        -5.3161411672       -3.5298359553       -3.3735058220
 H        -7.0681447915       -3.6669484626       -3.1859335350
 H        -6.5489755919       -5.5548899303       -1.7571096631
 H        -4.8518808738       -5.6426637387       -2.1131453053
 H        -5.8090456158       -7.0310002759       -2.4035062218
 H       -12.2639042499       -8.7889240693       -1.5850680492
 H       -10.6949782947       -7.9641552429       -1.3393294043
 H       -10.8786944073       -9.2722185087       -2.6130818810
 H       -13.3678192153       -8.2573594030       -3.9482495293
 H       -12.0831043343       -8.8080781710       -4.7025677645
 H       -12.5694101288       -7.0396199526       -5.0002340298
 H       -14.2821702403       -2.5147330276        2.0922387633
 H       -15.5921579473       -3.4050350089        2.8155358459
 H       -15.9368069945       -2.1851076199        1.5314238020
 H       -15.7251666618       -6.2572899584        0.8394813086
 H       -16.8038868487       -5.0436816499        1.6656887835
 H       -15.1663248637       -5.7140752516        2.3695626289
 H       -15.2060430985       -5.0791726312       -5.6594986470
 H       -14.3284632573       -4.2971417783       -4.4733864534
 H       -14.3354692778       -3.5219884682       -6.0807187884
 H       -17.2125357224       -1.3728282852       -5.8726582532
 H       -15.9844759274       -2.1054613853       -6.9180333097
 H       -15.4595855876       -1.2187236503       -5.6109917921
 H       -19.4830361998       -7.0264765590       -5.5844145970
 H       -20.4194794951       -6.2665466541       -6.8711131001
 H       -21.0440267936       -7.5802051877       -5.9358245218
 H       -22.7120205635       -5.2594778989       -6.2521779732
 H       -22.5849082690       -4.3053391120       -4.9382356688
 H       -23.3218696702       -5.8846791679       -4.7653310228
 Na      -18.3386233190       -4.7774778659       -2.3935231736
 Na        6.5546249905        2.7328995169      -16.7664842494
