232

 C        -5.9759647936        1.4050730745      -14.3075462958
 C        -5.6138438437        2.6262087584      -13.3742842105
 O        -4.4922627717        2.6671165422      -12.8983565697
 C        -6.6967396934        3.7070938008      -12.8768238202
 C        -5.9152141077        4.9976706225      -12.8004668144
 O        -5.0352342813        5.1389323646      -11.9387566553
 C        -6.4023511842        6.1493248795      -13.6283688466
 C        -5.4102021723        7.3362810240      -13.4834016393
 C        -4.0398075765        7.0664553847      -14.0761942921
 O        -3.8158315806        5.9361908790      -14.5497354228
 C        -2.8174756930        8.1660103764      -13.9494226480
 C        -2.1446348057        8.0498773649      -12.5163648304
 O        -2.2496236238        6.9377870919      -11.9892954207
 C        -1.1165504718        9.1640898470      -12.0092094993
 C        -1.4207073319        9.8367494478      -10.6407938435
 C        -2.8470285938       10.1992327423      -10.4953147633
 O        -3.6744913222        9.7191639684      -11.2646170527
 C        -3.3816651370       10.9005899376       -9.2025836388
 C        -3.1697499042        9.8750720777       -7.9934356306
 O        -2.0547971583        9.7636398499       -7.5387413229
 C        -4.4052348007        9.2169997307       -7.4888985110
 C        -4.4370467816        8.3865011923       -6.1419331774
 C        -4.7911988961        6.8525188577       -6.4846342796
 O        -5.3252402360        6.5857005367       -7.5254179878
 C        -4.1693363964        5.8495385110       -5.5070466573
 C        -2.7199012987        5.4677222755       -6.1408011217
 O        -1.7010991448        5.6388993770       -5.5012206303
 C        -2.7942452052        4.8614022980       -7.6295493817
 C        -1.4319024473        4.3639499718       -8.0607176020
 C        -1.3970664387        4.2426911291       -9.6763473052
 O        -2.4381467837        4.3379932488      -10.2765194464
 C         0.0216758259        3.8879216186      -10.4986181679
 C        -0.2970515987        2.8187926909      -11.5791639598
 O        -0.9616282387        3.2029531044      -12.5592285154
 C         0.0575556223        1.3724868233      -11.3562527630
 C        -0.6356430041        0.4026132690      -12.3191065964
 C        -1.3581438368       -0.7483227149      -11.6304351083
 O        -1.9631734769       -0.4451657566      -10.6317926322
 C        -1.5621834908       -2.3425329690      -12.1314874213
 C        -1.0850937567       -3.2165132575      -10.9262453141
 O         0.0317783999       -2.9955483324      -10.5484163547
 C        -2.0266362433       -4.1789423174      -10.2298815521
 C        -1.4517555855       -4.5217631076       -8.7410438774
 C        -1.4902305552       -5.9941164944       -8.3944564063
 O        -2.1930080099       -6.7864729474       -9.0357738911
 C        -0.5443484648       -6.4807705393       -7.1660831879
 C         0.4918361445       -7.4109833433       -7.6435939960
 O         0.2048454841       -8.4900529230       -8.1710252982
 C         1.9798406511       -7.0243221287       -7.7817777005
 C         2.8911666162       -8.2951737030       -7.7323403603
 C         2.7970938865       -8.8555956885       -6.2694992486
 O         2.1104059690       -8.3720891474       -5.3876918889
 C         3.7144060293      -10.2077691306       -5.8805218235
 C         3.0787565901      -11.2929816921       -6.7912667137
 O         3.4822124364      -11.4817005695       -7.9603951404
 C         1.7399396636      -11.9472124417       -6.4706818313
 C         0.9745056033      -12.3738877335       -7.8056514406
 C        -0.5316730946      -11.9821481148       -7.8777475501
 O        -1.0527646188      -11.2616548501       -7.0693849227
 C        -1.4938096469      -12.8414463485       -8.8781081800
 C        -2.7571721736      -11.8948357340       -8.9804407297
 O        -2.5899330016      -10.9271670187       -9.7733496541
 C        -3.9383523272      -12.0506370787       -8.0889365915
 C        -5.2010640860      -11.1540077726       -8.1649594901
 C        -4.9790169434       -9.6964041066       -7.8326618938
 O        -3.9067348972       -9.3347939112       -7.3782817326
 C        -6.2582674045       -8.7085819453       -7.9509087323
 C        -6.1817248617       -8.6245146195       -9.5947723761
 O        -6.7945805706       -9.4740232504      -10.2291007508
 C        -5.3672144544       -7.5208636988      -10.2519447729
 C        -5.3188055669       -7.8097353625      -11.7330884036
 C        -4.4639902805       -6.8571600655      -12.6037553871
 O        -3.3167573155       -6.5044581069      -12.2212748819
 C        -5.1996597943       -6.2647262264      -13.8681532354
 C        -6.1201679360       -5.3017462598      -13.0167728516
 O        -5.6304088111       -4.7564598047      -12.0474798026
 C        -7.6421793770       -5.2035858374      -13.2948630261
 C        -8.1262310564       -3.8931668068      -13.9786857943
 C        -9.4645069309       -3.5087846185      -13.1826933973
 O       -10.1838868730       -4.3463764010      -12.6589462628
 C        -9.8154007264       -1.9234801265      -13.1982442688
 C        -8.6789310939       -1.1991001059      -12.3558367082
 O        -7.7480682334       -0.6956654386      -12.8833181808
 C        -8.7031372135       -1.3683614432      -10.8157687170
 C        -9.8617417614       -1.2160972512      -14.5245446208
 C       -11.1868185608       -1.7727151074      -12.4243693321
 C        -4.1182915359       -5.4329624324      -14.6769827099
 C        -6.0734908061       -7.0495698314      -14.9494103448
 C        -7.6156329253       -9.2784797309       -7.5714581738
 C        -5.9282864895       -7.3934059229       -7.1879965906
 C        -0.8439218802      -12.8764940430      -10.3765236211
 C        -1.9639269393      -14.2095136522       -8.2054492590
 C         5.1267169498      -10.0793317162       -6.3474615631
 C         3.4784919001      -10.4037396574       -4.4087083084
 C        -0.0675467066       -5.2909170805       -6.2913109227
 C        -1.3676384251       -7.2363147863       -6.1302667948
 C        -3.0672776833       -2.4659976047      -12.4742757815
 C        -0.5066736933       -2.5368613769      -13.3402435227
 C         0.4260885256        5.3318958140      -11.0598109003
 C         1.1870152988        3.4035595701       -9.5214776860
 C        -3.7621957876        6.4374778581       -4.1072725895
 C        -5.0796401581        4.6082733856       -5.3195714691
 C        -2.7385739685       12.2136543175       -8.6688604053
 C        -4.9325345695       11.1944863261       -9.4393364850
 C        -1.7748117969        7.5316015438      -14.9684869393
 C        -3.2873534075        9.5826451888      -14.4524357224
 C        -7.7694566611        3.7032119484      -13.9921204809
 C        -7.1571854346        3.2811826838      -11.5178414316
 H        -6.2552522795        0.6110482908      -13.5718439785
 H        -5.0919829285        0.9403948432      -14.8466694852
 H        -6.7714160818        1.6475188060      -15.0279197423
 H        -7.4594998280        6.3088134587      -13.3398258645
 H        -6.4221472769        5.9740989781      -14.7240451783
 H        -5.2219060996        7.5423049535      -12.4250832327
 H        -5.7740957817        8.3220982572      -13.8159409221
 H        -0.9904177878        9.8846244202      -12.7856092906
 H        -0.1616981301        8.6360936960      -11.9191332731
 H        -0.7710131178       10.7357253822      -10.5998154680
 H        -0.9148880173        9.2080572299       -9.8857277512
 H        -4.9098678191        8.7656266300       -8.4114943990
 H        -4.9417341812       10.0909794111       -7.2782448784
 H        -5.1142132931        8.6700694482       -5.4050586391
 H        -3.3950052842        8.4618198247       -5.7039257191
 H        -3.2073022685        5.6865214841       -8.1850243102
 H        -3.5040634832        4.0602436293       -7.5331246075
 H        -1.0071641307        3.4281190640       -7.5518570617
 H        -0.7570153831        5.1416015615       -7.7524930367
 H        -0.1625462348        1.1015745794      -10.3415259487
 H         1.0524083620        1.1721624989      -11.5812800827
 H        -0.0295489941        0.2781425846      -13.1909479907
 H        -1.4446447218        0.9352592952      -12.7711156791
 H        -2.2090817017       -5.0957422675      -10.6839359546
 H        -2.9893762853       -3.5163613190      -10.1914604737
 H        -2.0548353280       -3.8571838616       -7.9271200852
 H        -0.4411834055       -4.2174303209       -8.6867991913
 H         2.3288820237       -6.3466599366       -6.9431218246
 H         2.1112656536       -6.5045892613       -8.7566801129
 H         3.9600483218       -8.1175534498       -7.9716858480
 H         2.5072309610       -9.1800608314       -8.3050447451
 H         1.1512933887      -11.1248604472       -5.8620848460
 H         1.9308185797      -12.7174832966       -5.7881405010
 H         1.0857697141      -13.4364533074       -8.0466129829
 H         1.4463596449      -11.9034948920       -8.7193197472
 H        -3.5674718471      -11.9053767375       -7.1047082877
 H        -4.1690092261      -13.1295517500       -8.0760930090
 H        -5.9129223877      -11.4811659540       -7.3432816068
 H        -5.7617848349      -11.0884431668       -9.1315564674
 H        -4.4045169039       -7.6936759586       -9.8155350958
 H        -5.7286040106       -6.5741688216      -10.0221027023
 H        -6.3253333131       -8.0020036997      -12.1308217082
 H        -4.7943716011       -8.7735585800      -11.7004313772
 H        -8.0733540042       -5.3363731547      -12.2769721898
 H        -7.9107562292       -6.1431176148      -13.8869315746
 H        -8.5777785900       -4.1788427814      -14.8967753538
 H        -7.2791226152       -3.1588881937      -14.0545722355
 H        -7.9028424713       -0.7848423503      -10.3151415240
 H        -8.4972655389       -2.4028618738      -10.6581325974
 H        -9.6878310778       -1.2627972044      -10.2993847935
 H        -8.8413847153       -1.1799677689      -14.9637692193
 H       -10.1792930448       -0.1605201330      -14.3785401299
 H       -10.4373357360       -1.7050732044      -15.2987954128
 H       -11.4657197132       -0.7929425569      -11.9720458661
 H       -11.1273564074       -2.4529746071      -11.6076580578
 H       -12.1158300711       -2.1464688373      -13.0193908717
 H        -4.6879281523       -4.7395729139      -15.3694403251
 H        -3.4908726343       -6.1544078633      -15.2293266126
 H        -3.6166496717       -4.7724645045      -13.9781347357
 H        -6.3995114302       -6.3103586647      -15.6650252256
 H        -6.8472005799       -7.5450809250      -14.4842790578
 H        -5.4527102933       -7.7972635907      -15.5231892871
 H        -8.2653662301       -8.3854730912       -7.4213802110
 H        -7.5623958870       -9.7134071404       -6.5798163858
 H        -7.9948102404      -10.0401721612       -8.2812288300
 H        -6.7259401644       -6.6154929839       -7.3176102615
 H        -4.9080262272       -7.0447770320       -7.4077807745
 H        -6.0806811556       -7.6437323782       -6.1768180601
 H        -0.1027201006      -13.6906882199      -10.3845163493
 H        -0.3267497754      -11.8612787238      -10.4334253876
 H        -1.4863302133      -12.9636354779      -11.2328035346
 H        -1.1408919340      -14.8575126291       -7.9601347794
 H        -2.4864527368      -14.7246012532       -9.0232374162
 H        -2.5058683271      -13.8910075346       -7.3500545943
 H         5.1823137082      -10.3034048774       -7.4234387104
 H         5.7896825602      -10.7503542027       -5.7699248757
 H         5.6645674260       -9.0774964421       -6.2858531989
 H         2.8833662795       -9.6310535935       -3.9546977284
 H         4.4255278429      -10.4529921721       -3.8943722389
 H         3.1046369895      -11.3723956477       -4.1311655165
 H         0.5311343410       -5.7569150252       -5.5108436411
 H        -0.9226775668       -4.8056821044       -5.7844791757
 H         0.4873614178       -4.5305030216       -6.8104282547
 H        -2.3588824224       -6.7655369783       -5.9627142921
 H        -0.8139828834       -7.2626449443       -5.1177442843
 H        -1.6761147338       -8.2039033432       -6.5443168982
 H        -3.3875802476       -2.0046022354      -13.3784551752
 H        -3.6598015721       -2.1481158091      -11.6285515615
 H        -3.3069609083       -3.5213859771      -12.5814382791
 H         0.4859982220       -2.1791344113      -13.1227840785
 H        -0.7158981525       -1.8091667690      -14.2116926348
 H        -0.4235015687       -3.6531326469      -13.5827833807
 H         0.4039075850        6.0558789358      -10.2254305131
 H        -0.3899953603        5.5474453587      -11.7746100417
 H         1.3766195150        5.1996885621      -11.5255192792
 H         2.1423367816        3.5683535735      -10.0663372311
 H         1.0768336082        2.2820140554       -9.4244462715
 H         1.1082489470        3.8743794358       -8.5635693969
 H        -2.9585877084        7.1903234151       -3.9919602602
 H        -3.2739940564        5.5754270791       -3.5477866928
 H        -4.6230339946        6.8632630558       -3.6112632961
 H        -5.3646402026        4.1761395108       -6.3006923897
 H        -5.9588257596        5.1192967491       -4.8441107024
 H        -4.7673279217        3.8834806132       -4.5959779143
 H        -1.7240247363       11.9376529143       -8.3135836435
 H        -3.3590304560       12.5332480137       -7.8514182779
 H        -2.7451017751       12.9565672138       -9.4908266830
 H        -5.4460839576       10.2804854794       -9.7653776372
 H        -5.1051544775       12.0234447371      -10.1633622296
 H        -5.4335244127       11.4049986308       -8.5241002006
 H        -1.9712266323        6.4665022059      -15.0019675795
 H        -0.7409554453        7.7894398097      -14.6436075086
 H        -1.9931737729        7.9849917961      -15.9599820747
 H        -4.0606791323       10.0681666258      -13.7730140143
 H        -3.6360248305        9.4492893508      -15.4371334220
 H        -2.3805095957       10.2225759157      -14.5572640759
 H        -7.3561231624        3.8539224805      -14.9907434439
 H        -8.4733197110        4.5428547589      -13.7609072994
 H        -8.4282656981        2.8362856964      -14.0316160594
 H        -6.5944853255        3.6191638632      -10.6481220108
 H        -7.0695243392        2.1392583956      -11.3713622933
 H        -8.2347596906        3.5191859976      -11.2578625257
 Na       -2.8164425486        4.6467675884      -12.4793023181
 Na       -1.8403334570       -9.1957674695       -8.5516387222
