232

 C        -5.8155519637        1.3299675088      -14.1826000310
 C        -5.4268506781        2.5431847708      -13.4582455209
 O        -4.3207709752        2.6544402509      -13.0385250358
 C        -6.6843974127        3.7352730148      -13.0168986847
 C        -6.0368743482        5.1091796125      -12.6892338901
 O        -5.1913349409        5.1565333799      -11.8380454801
 C        -6.3807068242        6.3618296026      -13.5361031580
 C        -5.4028646656        7.4983910589      -13.3980051229
 C        -3.9982253986        7.0492023106      -13.9335043734
 O        -3.8625521828        5.9335999685      -14.4021660676
 C        -2.7335269137        8.1229569148      -13.9607968145
 C        -2.0015510233        8.1924811123      -12.4721790359
 O        -2.0528912681        7.1496392310      -11.8299487218
 C        -1.1113359096        9.3202298600      -12.2046583151
 C        -1.3933510444        9.8236748056      -10.7529052764
 C        -2.8828284303       10.0631793884      -10.5562068795
 O        -3.5936291441        9.6194332659      -11.4548267377
 C        -3.4726110045       10.9427433652       -9.4732216900
 C        -3.3393121407       10.1196245259       -8.0989492687
 O        -2.2173367807        9.9051380698       -7.6651153240
 C        -4.4881613026        9.6103574016       -7.1636528811
 C        -3.9572565003        8.5866581890       -6.1338541959
 C        -4.5214096105        7.1819763125       -6.3454785098
 O        -5.4634869901        6.9700422517       -7.1002356547
 C        -3.8680053826        5.9250638134       -5.5478505107
 C        -2.5848326388        5.4711431038       -6.2452178761
 O        -1.5672259124        5.2202237850       -5.6238791394
 C        -2.7432856256        5.0430684348       -7.7302396973
 C        -1.4074636685        4.5054530563       -8.1289934051
 C        -1.3636438286        4.1812490069       -9.6423652487
 O        -2.3484284485        4.4293569039      -10.2804292852
 C        -0.0174588267        3.7683048637      -10.4674121942
 C        -0.4904083534        2.7827265631      -11.4676380931
 O        -1.3275293803        3.0078499140      -12.2978091828
 C        -0.0416993527        1.3297188310      -11.1404413603
 C        -0.5340428472        0.2067618796      -12.1651077267
 C        -1.3442450646       -0.8327655611      -11.4533143341
 O        -1.9544712489       -0.5081039236      -10.4386471852
 C        -1.5135994951       -2.2742008397      -12.0463039078
 C        -1.0381593256       -3.1936907759      -10.8487513947
 O         0.1364061156       -3.0889139491      -10.4823349955
 C        -1.9372994474       -4.3090818337      -10.2180108871
 C        -1.3878142548       -4.6011836368       -8.8745522502
 C        -1.4630182315       -6.0774609905       -8.2546461331
 O        -2.1521069015       -6.9324912536       -8.7429539318
 C        -0.3779349855       -6.4942960327       -7.0911792475
 C         0.7039306801       -7.5783098564       -7.6360810357
 O         0.3060934664       -8.6029163487       -8.1693336579
 C         2.1182382094       -7.1293163749       -7.8028298780
 C         3.0704868718       -8.2431607831       -7.7461194352
 C         3.0112430973       -8.8475756782       -6.2568105822
 O         2.3476933905       -8.3287213890       -5.3838535942
 C         3.6997714212      -10.2140608680       -5.9849653785
 C         3.0960556125      -11.2909289258       -6.9270979630
 O         3.6116466269      -11.5867076275       -7.9438904072
 C         1.6512548654      -11.8399270712       -6.5871374898
 C         0.8720508224      -12.2676718396       -7.8031592130
 C        -0.6217863771      -11.9394087327       -7.7326850625
 O        -1.0662252132      -11.1439269844       -6.8932643363
 C        -1.5199282032      -12.7779261064       -8.7344527764
 C        -2.8144136251      -11.8186412986       -8.9658047215
 O        -2.8281097498      -10.8662219450       -9.7057144271
 C        -4.1003850573      -12.1667670062       -8.1741001932
 C        -5.3427584708      -11.2627662234       -8.3524676392
 C        -5.1809958826       -9.7754814549       -7.8875771470
 O        -4.0987972923       -9.2842853469       -7.5286447595
 C        -6.3807148139       -8.7479127787       -8.0790807328
 C        -6.4352442675       -8.6723694243       -9.6619642369
 O        -7.0835390426       -9.5688194802      -10.2100477685
 C        -5.5264797238       -7.7228724012      -10.5054843974
 C        -5.4625651167       -8.0109624351      -12.0776543791
 C        -4.6734944317       -6.8265420340      -12.6704759542
 O        -3.6885294690       -6.5131728566      -12.0860417652
 C        -5.1489920289       -6.0627784432      -13.9443337101
 C        -6.2792585476       -5.2001644114      -13.1184715291
 O        -5.9587880197       -4.4988914412      -12.1835432380
 C        -7.7295267773       -5.2413879145      -13.5411530139
 C        -8.1758839831       -3.8577427994      -13.8898065695
 C        -9.5241580167       -3.4992976656      -13.0768272376
 O       -10.1793821889       -4.3256534169      -12.4519395019
 C        -9.8762979318       -2.0037900757      -13.0850863362
 C        -8.7121266529       -1.3293766853      -12.1944468836
 O        -7.6784635023       -0.9181153017      -12.7520438875
 C        -8.6858274990       -1.5040243667      -10.6541778575
 C        -9.8613951724       -1.5085167016      -14.5877801928
 C       -11.2765418989       -1.7710124252      -12.4039154276
 C        -4.0429005570       -5.0948091912      -14.4560976658
 C        -5.5886176392       -7.0799907731      -15.0188452795
 C        -7.7282240001       -9.3611137627       -7.5352784190
 C        -5.9581455536       -7.3973511479       -7.3765160808
 C        -0.7318358798      -12.8862253999      -10.0905748621
 C        -1.7526979911      -14.2739866648       -8.2614303416
 C         5.1534250463      -10.0749111013       -6.2824650321
 C         3.5926497881      -10.6301256780       -4.5233722249
 C         0.3128238591       -5.2664744826       -6.5008617335
 C        -1.3344609865       -7.2640186526       -6.0610163431
 C        -2.9740958428       -2.2705539020      -12.6269956880
 C        -0.6035666174       -2.6550258731      -13.1987252157
 C         0.4442802278        5.0914977980      -11.2226021311
 C         1.0856574416        3.2999918319       -9.4114898216
 C        -3.6782430108        6.4778860378       -4.1737436515
 C        -4.9073978977        4.7636186886       -5.4525703590
 C        -2.7962346704       12.4105359785       -9.3765998804
 C        -4.9591457807       11.1458433108       -9.7215266330
 C        -1.5944029051        7.6579896141      -14.8978636770
 C        -3.3334122784        9.4713552178      -14.4462135654
 C        -7.8672001982        3.7485349091      -13.9525818406
 C        -7.2943493753        3.1474392517      -11.6914057434
 H        -6.0857770508        0.5302800667      -13.5054652748
 H        -4.9180186999        0.9782910618      -14.7304492184
 H        -6.4915213682        1.5349149150      -15.0138855412
 H        -7.3902569847        6.7472148618      -13.3513012469
 H        -6.3612070158        6.1032107946      -14.5986653950
 H        -5.3914396503        7.8699354164      -12.3512928958
 H        -5.7776027789        8.3828473292      -13.9091779767
 H        -1.4405931199       10.1965728210      -12.8385196457
 H        -0.0610410695        9.0768351296      -12.5229509639
 H        -0.6339718097       10.6097441299      -10.6763530260
 H        -1.0166822771        9.0878317262      -10.0446906428
 H        -5.3046394378        9.0729996577       -7.6602019890
 H        -4.9747530646       10.5327435422       -6.6404291995
 H        -4.2732609776        8.8708530304       -5.0603485218
 H        -2.9131030001        8.3724443731       -6.1286806507
 H        -3.0398111378        5.9792978334       -8.2810732797
 H        -3.5743094065        4.3091012993       -7.8204429636
 H        -1.1118345457        3.6646868646       -7.5946742633
 H        -0.6027859237        5.2527641857       -7.9190356779
 H        -0.6283814359        1.0638133804      -10.2037359654
 H         1.0909773601        1.1295184566      -11.0340563589
 H         0.3710895331       -0.2150769885      -12.6411528479
 H        -1.0619250066        0.6493410955      -13.0604721310
 H        -1.8148209210       -5.2501203786      -10.8782286830
 H        -2.9258040482       -4.0127553803      -10.2611328526
 H        -1.8196029889       -3.9312802196       -8.2590580123
 H        -0.2504823984       -4.3223383637       -8.8798505545
 H         2.3356514035       -6.4440353104       -7.0303272520
 H         2.2221497026       -6.7223866143       -8.8043680019
 H         4.0957694039       -7.9212552264       -7.9000440496
 H         2.8122605780       -8.9926883852       -8.4840013663
 H         1.2290945567      -11.0396501429       -6.1308068330
 H         1.7811464646      -12.6176857200       -5.7781771120
 H         0.9367566119      -13.3682437904       -8.0305936072
 H         1.3828676685      -11.8222785103       -8.6648825396
 H        -4.0784828299      -12.5519202454       -7.0843653469
 H        -4.4509396218      -13.0399289551       -8.7186857983
 H        -6.0447563269      -11.7666336836       -7.7044076999
 H        -5.7272351846      -11.1441037396       -9.3588461124
 H        -4.4677935976       -7.7738496163      -10.0641789530
 H        -5.8978958331       -6.6270031477      -10.4393074978
 H        -6.3920349002       -8.3167084530      -12.5546181602
 H        -4.8274992622       -8.9055004629      -12.1588869245
 H        -8.2786417876       -5.7775150272      -12.7215905441
 H        -7.7124687694       -5.8442757563      -14.4141130312
 H        -8.3852367415       -3.7837506374      -14.9911618624
 H        -7.3894465228       -3.1755816013      -13.5801136690
 H        -7.7103427564       -1.6768232315      -10.2153810716
 H        -9.3828059468       -2.3393363325      -10.3727948134
 H        -9.1147654663       -0.6289323848      -10.1424728344
 H        -9.0028028702       -0.8994264191      -14.7640153158
 H       -10.6950366865       -0.8372623578      -14.8358871138
 H        -9.7080730841       -2.3377782590      -15.3200423696
 H       -11.5585898190       -0.8139777816      -12.6966048453
 H       -11.4185050849       -1.7925825419      -11.3172190230
 H       -12.0155480950       -2.4249183055      -12.7495445045
 H        -4.4679168049       -4.4148084631      -15.0755970002
 H        -3.1615949293       -5.6403940165      -14.7846417272
 H        -3.7849209918       -4.5531055366      -13.5807581386
 H        -6.0943854177       -6.5389338667      -15.8442334812
 H        -6.3076727412       -7.7576082137      -14.4777686466
 H        -4.8501553461       -7.6806602179      -15.4375433858
 H        -8.5562835515       -8.7138854029       -7.8189426486
 H        -7.8027369262       -9.4071656149       -6.4247090725
 H        -7.8137731688      -10.3415163776       -7.9990739170
 H        -6.8258573215       -6.8353296984       -7.2702139409
 H        -5.2638404729       -6.8838062851       -8.0001846537
 H        -5.5694084612       -7.5174434940       -6.3498237273
 H         0.0567914110      -13.6268042569      -10.0477293982
 H        -0.4198701020      -11.9691133241      -10.4492251361
 H        -1.4635582831      -13.3704810192      -10.7587226867
 H        -1.0603689449      -14.4243216326       -7.4427858584
 H        -1.6039002755      -15.0073684861       -9.0441610953
 H        -2.7656897622      -14.2864670488       -7.8141797911
 H         5.4993148592      -10.2504382895       -7.2578387155
 H         5.6383142403      -10.6296560286       -5.5347056551
 H         5.4922110184       -9.1159996952       -6.1105653300
 H         2.6431208636      -10.3936108184       -3.9867903507
 H         4.4181896726      -10.2230950724       -3.9533725073
 H         3.7832076102      -11.6948575689       -4.4012213133
 H         0.8333010051       -5.4800112772       -5.5698222100
 H        -0.3815517826       -4.4802109530       -6.2847480302
 H         0.9552940404       -4.9188790356       -7.3020675706
 H        -1.3185624183       -6.9143262812       -5.0115044253
 H        -0.9153976285       -8.2099088985       -5.9806590239
 H        -2.4115179262       -7.2644420978       -6.3532579182
 H        -2.8863585312       -2.2643560110      -13.7397415296
 H        -3.5086733747       -1.3559008759      -12.4068045072
 H        -3.5857820218       -3.1274239715      -12.2644099484
 H         0.4096189649       -2.9927220347      -12.8694624799
 H        -0.3637780767       -1.9136588542      -13.9160945763
 H        -1.1236946630       -3.4730269744      -13.6821002699
 H         0.8338189505        5.7007952949      -10.4273500367
 H        -0.4055244564        5.5739070539      -11.6354973769
 H         1.2029686401        4.7622331713      -11.9632252245
 H         1.6316190513        2.4045514157       -9.7178676909
 H         0.5954185664        3.0324369026       -8.5051529681
 H         1.6220092745        4.2667289661       -9.1963521834
 H        -3.0011015195        7.3497651310       -4.1898771738
 H        -3.2585825556        5.7547159028       -3.4794873535
 H        -4.6312088634        6.8989519265       -3.7856783443
 H        -4.9752202407        4.2338025557       -6.4226498132
 H        -5.8363406824        5.0484430617       -4.9924636606
 H        -4.4722460178        4.1185514130       -4.6507968268
 H        -1.8095727405       12.1278174591       -9.5962557229
 H        -2.8404104673       12.7807051360       -8.3362162037
 H        -3.1566630795       13.0536393340      -10.1704173690
 H        -5.4156657765       10.1619870630       -9.7908683941
 H        -5.0833050511       11.7425353791      -10.6001248999
 H        -5.5706945717       11.6001761908       -8.9041841574
 H        -1.7393528105        6.5270823982      -14.9304120009
 H        -0.6225883381        7.9944046527      -14.5486598069
 H        -1.8174695283        8.0939986621      -15.8925293013
 H        -3.9931793650        9.8608970783      -13.6956357985
 H        -3.7614703302        9.2031165652      -15.4397072968
 H        -2.6416195902       10.2435991034      -14.6483353382
 H        -7.6446519020        3.8797345906      -15.0080369937
 H        -8.6411940264        4.4195831300      -13.6596965961
 H        -8.3634196409        2.7844524848      -13.9430816589
 H        -6.5936795217        2.7531409832      -10.9872739905
 H        -7.9565326031        2.3603224382      -11.7711908122
 H        -7.6960282619        3.9597313298      -11.1088954136
 Na       -3.0296660969        4.6786271431      -12.7014525239
 Na       -2.0042747642       -9.2126730658       -8.2488144102
