232

 C        -5.8085734060        1.3145488253      -14.1556968429
 C        -5.5029410106        2.6442434045      -13.5125184757
 O        -4.3719222213        2.8770879199      -13.1113357066
 C        -6.6221078110        3.6481910242      -13.0687172079
 C        -5.9784244583        5.0720736544      -12.7188600718
 O        -5.2952997661        5.2157385680      -11.7191934245
 C        -6.4143222432        6.3336668015      -13.4784628893
 C        -5.2641965096        7.4327948641      -13.3886305127
 C        -3.9369964811        7.0961872628      -13.9537054906
 O        -3.7122807723        5.9314012811      -14.3510432472
 C        -2.8460396077        8.0658228897      -13.9636822321
 C        -2.0517996149        8.1566458976      -12.5275422428
 O        -2.0155679267        7.1518060797      -11.8008397946
 C        -1.1208159299        9.4257220093      -12.2421527931
 C        -1.4431559559        9.8517923852      -10.7992504840
 C        -2.9260052807       10.0423976187      -10.6950668521
 O        -3.6678120395        9.5105769636      -11.4930338575
 C        -3.5779524554       10.9216107285       -9.5637532139
 C        -3.3423098063       10.2305795646       -8.1296749392
 O        -2.1569390327       10.0197904193       -7.8545444090
 C        -4.4272363299        9.7537040155       -7.1052751203
 C        -3.8719582659        8.6944243113       -6.1922097290
 C        -4.4530429087        7.2096176993       -6.3428215122
 O        -5.5003934904        7.1307525521       -6.9271704113
 C        -3.8223091150        6.0726765695       -5.4887448865
 C        -2.5519179772        5.4661478278       -6.1854813240
 O        -1.5633541444        5.1555436499       -5.5419468268
 C        -2.6293075686        5.1298950933       -7.7084822262
 C        -1.3720093657        4.5406641433       -8.1994304917
 C        -1.3858567673        4.3585309285       -9.7332733452
 O        -2.4046907883        4.4883135377      -10.3916514196
 C        -0.0642704258        3.8568774595      -10.3666994897
 C        -0.5818406107        2.6011101880      -11.4159817200
 O        -1.3871187201        2.9367504248      -12.2722829239
 C        -0.0252585876        1.2656717036      -11.1175283200
 C        -0.4154459110        0.1069824911      -12.0877656566
 C        -1.3014700373       -0.9090488939      -11.3297986675
 O        -1.9341644928       -0.5637922810      -10.3414947778
 C        -1.5200573582       -2.3344766339      -12.0292525447
 C        -1.0668200366       -3.3416514922      -10.8848110324
 O         0.0549685735       -3.0537628195      -10.5208486135
 C        -1.8980576377       -4.3935209480      -10.1963870408
 C        -1.2505269943       -4.7350332862       -8.7842361829
 C        -1.2791037151       -6.1915230492       -8.3467110308
 O        -2.1852784183       -6.9181604076       -8.7333103511
 C        -0.3524252356       -6.4959704061       -7.1576608274
 C         0.7176404717       -7.4814691087       -7.7870931886
 O         0.3475716140       -8.6187150076       -8.0931845451
 C         2.1709158150       -7.0863970497       -7.9177854930
 C         3.1809115556       -8.2922497652       -7.6282894363
 C         2.9847607508       -8.9530015301       -6.2613350654
 O         2.4563416815       -8.2903652587       -5.3851367679
 C         3.8114855347      -10.3257884514       -5.9698551637
 C         3.1609712901      -11.2768073484       -6.9672996338
 O         3.6098959744      -11.6892044377       -8.0501950163
 C         1.6971245514      -11.6749006718       -6.5208417223
 C         0.8656120477      -12.2835846792       -7.6389677822
 C        -0.6020315048      -11.9008324961       -7.7269171435
 O        -1.1334172169      -11.1362650915       -6.9620198342
 C        -1.5503983799      -12.6812879291       -8.7653984263
 C        -2.9233049741      -11.9716933896       -8.9514304244
 O        -2.8862502060      -10.9125738477       -9.5960843326
 C        -4.2535202679      -12.3150498949       -8.1848688324
 C        -5.3384331432      -11.2524764381       -8.4674604389
 C        -5.1806808607       -9.7531915535       -8.0387152566
 O        -4.1440699110       -9.3670260170       -7.4608844859
 C        -6.3845817044       -8.7911812744       -8.2634139118
 C        -6.5683529828       -8.8090975790       -9.7942319163
 O        -7.3218294380       -9.6465256322      -10.2983098178
 C        -5.6795066513       -7.8174764591      -10.5388230009
 C        -5.5754817622       -8.0210746154      -12.0019287147
 C        -4.5893399780       -6.9005844056      -12.5681243431
 O        -3.5594700034       -6.4987358513      -11.9858927319
 C        -5.1724222017       -6.0456401205      -13.7909078727
 C        -6.3386654232       -5.2085149955      -13.2721847209
 O        -6.0662985765       -4.3855740189      -12.4072594018
 C        -7.7927394373       -5.3377689138      -13.7800550378
 C        -8.2965186821       -3.9410923291      -13.8250365425
 C        -9.5368180440       -3.5351140234      -12.9413768065
 O       -10.1733828881       -4.3925792016      -12.3400111776
 C        -9.8950369778       -1.9225364157      -13.0381459579
 C        -8.7102144217       -1.3905832942      -12.2108180697
 O        -7.7116087800       -0.9637182485      -12.6939904109
 C        -8.8192742015       -1.5593716608      -10.7128696188
 C        -9.8687283212       -1.4322279067      -14.4824123689
 C       -11.2455528633       -1.7624509342      -12.4413169043
 C        -4.0799326291       -5.0577674965      -14.2979679956
 C        -5.5226660677       -6.9919504806      -14.9534848397
 C        -7.6539079356       -9.3787997767       -7.6154345720
 C        -6.0238722631       -7.4228900455       -7.5712312614
 C        -0.7696686212      -12.7878519473      -10.1425734065
 C        -1.7965418044      -14.0636645192       -8.1550499796
 C         5.2915215799      -10.0303111118       -6.3229158395
 C         3.5353564993      -10.7495462827       -4.5256181163
 C         0.2858760836       -5.2826008824       -6.5191035794
 C        -1.1383308598       -7.1587997458       -5.9415461441
 C        -3.0463055059       -2.3459929345      -12.4403088207
 C        -0.4902375501       -2.5919715637      -13.2011227177
 C         0.4294983602        4.9815012411      -11.3781031877
 C         1.0393468576        3.3254876237       -9.3156726022
 C        -3.4547129775        6.4735160542       -4.0382643148
 C        -4.9255530697        4.9244581126       -5.6096191755
 C        -2.8137691586       12.3026324445       -9.6144404618
 C        -5.0796493408       11.1670819696       -9.8026708960
 C        -1.6512874225        7.6269058904      -14.9077031223
 C        -3.2633732197        9.5301530413      -14.3580464536
 C        -7.8440283565        3.8469356908      -14.0431552589
 C        -7.1669225266        3.0948891199      -11.7156449531
 H        -6.3224015043        0.7961311967      -13.3861877705
 H        -4.9330265687        0.7139445375      -14.4113578568
 H        -6.3274785254        1.3470914545      -15.0716840374
 H        -7.2137863262        6.8153757383      -12.9540166311
 H        -6.7522733670        6.1539294175      -14.4972464684
 H        -5.1809457873        7.7041622310      -12.3075468258
 H        -5.6106268047        8.3613041786      -13.7612695211
 H        -1.3664426488       10.2691483209      -12.8266710887
 H        -0.0718403641        9.1313242291      -12.5385082860
 H        -0.6378469511       10.5426794196      -10.4831736087
 H        -1.2660623175        8.9859713195      -10.2241930528
 H        -5.3175209029        9.2727004020       -7.5228468846
 H        -4.7437252029       10.5955181733       -6.5781206547
 H        -3.9293916115        9.0308664846       -5.1767488676
 H        -2.7957822030        8.4268357817       -6.4142177296
 H        -2.8092542323        6.0869424032       -8.2402153895
 H        -3.4724930435        4.4881492963       -7.9255278026
 H        -1.1721642824        3.5297313753       -7.8361042079
 H        -0.4710805216        5.0838347044       -7.9415551205
 H        -0.4653462445        0.9482842351      -10.0970788131
 H         1.0303649694        1.3496694120      -11.1529963401
 H         0.5442758441       -0.3162268910      -12.4870241242
 H        -0.8921365225        0.5395781655      -13.0039470087
 H        -2.0335518878       -5.2431042244      -10.8839797995
 H        -2.9189287179       -3.8906170218      -10.1485390177
 H        -1.9176257870       -4.2659833041       -8.0129037250
 H        -0.3072564356       -4.2856370898       -8.7008028612
 H         2.3114801754       -6.3044218957       -7.1407093863
 H         2.3584593952       -6.7927366437       -8.9569621913
 H         4.2110038166       -8.0188206864       -7.5634481704
 H         3.0956613020       -9.0530480308       -8.3875911452
 H         1.2805803373      -10.7221471298       -6.0561786936
 H         1.9220943036      -12.3610748488       -5.6966110357
 H         1.0200281500      -13.3661730081       -7.8210581511
 H         1.2999281492      -11.8698201548       -8.4818473649
 H        -3.8602587233      -12.2257810530       -7.0940574142
 H        -4.7966195755      -13.2606721340       -8.1988246703
 H        -6.1281410717      -11.6502175020       -7.8247244557
 H        -5.6296364760      -11.2244407050       -9.4406173433
 H        -4.6251986576       -7.9320366175      -10.1008755088
 H        -6.0002526356       -6.8284115399      -10.4170640897
 H        -6.5428653404       -7.9637377381      -12.5625526838
 H        -5.2552719725       -9.0777844654      -12.1722734514
 H        -8.2205331469       -5.9278851263      -13.0639771556
 H        -7.8259388553       -5.8177202673      -14.7187944248
 H        -8.5999375526       -3.7200894711      -14.8424129808
 H        -7.4343211993       -3.2518230086      -13.5137136357
 H        -7.9054504386       -2.0208538433      -10.3609944815
 H        -9.6262555199       -2.0917209210      -10.3118287492
 H        -8.7849487056       -0.5457167860      -10.2332629084
 H        -9.0348960233       -0.8745854086      -14.7337883370
 H       -10.7027627733       -0.7445167367      -14.7036276132
 H        -9.8581945047       -2.2878142942      -15.1341411682
 H       -11.6221837058       -0.8083091396      -12.7091679030
 H       -11.3169865204       -1.7991062383      -11.3940342957
 H       -12.0213666552       -2.5259723678      -12.7481013701
 H        -4.5607816338       -4.3447041334      -14.9580254541
 H        -3.2370717652       -5.6911243204      -14.6553888593
 H        -3.7009197155       -4.5370541932      -13.4605499019
 H        -6.0365734260       -6.3715013124      -15.7603984092
 H        -6.0944744340       -7.8290991128      -14.6424522226
 H        -4.6259120874       -7.4325948840      -15.4372658502
 H        -8.5538437555       -8.8305857147       -7.9402227085
 H        -7.6453277201       -9.2575758306       -6.5749242764
 H        -7.7567802146      -10.4102076373       -7.9235312923
 H        -6.8848011361       -6.7322103005       -7.5429539581
 H        -5.2394165318       -6.9886353595       -8.2027111032
 H        -5.6446621318       -7.5394908160       -6.5758326079
 H         0.2696077730      -13.1311394023      -10.0457133504
 H        -0.7870974920      -11.8147505260      -10.6095796338
 H        -1.2401415796      -13.5486890932      -10.7097245975
 H        -1.0440819240      -14.2712848222       -7.3997385369
 H        -1.8202997943      -14.8364012419       -9.0222616594
 H        -2.7852250599      -14.0751273298       -7.6373248839
 H         5.3909389441       -9.8350067881       -7.3532055602
 H         5.9454437085      -10.8137014526       -5.9776093729
 H         5.7186254428       -9.1160486353       -5.9233683635
 H         2.4272610144      -10.9449348381       -4.4034737181
 H         3.7710909847       -9.9617912235       -3.8124627826
 H         4.0583430832      -11.6246972969       -4.1514568105
 H         0.9593806973       -5.6506250280       -5.7358755843
 H        -0.4671852468       -4.6882805810       -5.9656441232
 H         0.7832812111       -4.6833573220       -7.2299042392
 H        -0.5857311025       -7.1138312396       -5.0410042135
 H        -1.3302732409       -8.1961184054       -6.0582350806
 H        -2.0189240784       -6.5904461445       -5.8040770417
 H        -3.0761142664       -2.4146623857      -13.5733675452
 H        -3.5328294363       -1.4189064114      -12.2673917191
 H        -3.6123996823       -3.2208171198      -11.9586669199
 H         0.4645391117       -2.5530798841      -12.8339396972
 H        -0.6256071668       -1.8980691069      -14.0460626324
 H        -0.7000697639       -3.5513677395      -13.7299857302
 H         0.7790050447        5.7435527712      -10.7110648540
 H        -0.3969676929        5.3469087781      -11.9492564942
 H         1.2462139294        4.5260791215      -11.9427464392
 H         1.5925186402        2.5593300179       -9.8135669517
 H         0.5283650596        2.7848924705       -8.4876570886
 H         1.5554580943        4.1876171982       -8.9397864812
 H        -2.6447936133        7.2182026887       -4.0765048202
 H        -3.0985305408        5.5283810619       -3.5684161937
 H        -4.2020629496        6.8846590549       -3.4214439770
 H        -4.9559748050        4.6972209650       -6.6806309036
 H        -5.8482511636        5.0382952700       -5.0829591872
 H        -4.4533293673        4.1437220719       -5.1164364357
 H        -1.8061706596       11.9954035737       -9.7118992861
 H        -2.9709313980       12.8779424621       -8.7309913364
 H        -3.0766209705       12.7779556120      -10.5774926576
 H        -5.6472199008       10.3081702209       -9.4988125433
 H        -5.2294686768       11.5167929171      -10.8140978815
 H        -5.5349212755       11.9505667271       -9.1639636697
 H        -1.4397409026        6.5998466644      -14.7274893958
 H        -0.8457125891        8.2677394284      -14.7444604589
 H        -2.0058186159        7.7890844130      -15.9089096953
 H        -3.7091207980       10.1559980468      -13.5222490195
 H        -3.7832205197        9.4203740511      -15.2757983754
 H        -2.3947474303       10.0884885497      -14.6141918183
 H        -7.4659156642        3.8879828187      -15.0484681216
 H        -8.5017726742        4.6714962285      -13.8502995656
 H        -8.4875013229        2.9895608233      -14.1120284423
 H        -6.5211943688        2.6607804695      -11.0455124510
 H        -7.8751395708        2.2768684839      -11.8353518201
 H        -7.5213853899        3.8936653113      -11.0692528668
 Na       -2.9876755531        4.7058473632      -12.5808870681
 Na       -2.0384633525       -9.2482498258       -8.0944580226
