232

 C       -22.1780646559       -7.5058924368       -3.2209394125
 C       -20.9412051706       -6.5515646917       -3.4301077978
 O       -19.9667907420       -6.5414823764       -2.6477247713
 C       -20.9774637669       -5.7782962564       -4.8105954402
 C       -20.3167166503       -4.4089998283       -4.7826626065
 O       -20.1700756537       -3.8107132506       -3.7443668122
 C       -20.1135595369       -3.6812450514       -6.1226778634
 C       -18.6280900421       -3.8150239149       -6.5579161037
 C       -17.5574713268       -4.1242898194       -5.4123478927
 O       -17.7782788642       -5.1092993700       -4.7194887229
 C       -16.2276235347       -3.3056205978       -5.1699342829
 C       -16.2117384525       -2.9884894572       -3.5183925868
 O       -17.3021471177       -2.6720921933       -3.1105693408
 C       -15.0586669519       -2.9007778249       -2.6383446124
 C       -15.3568630401       -2.4810842541       -1.1335274819
 C       -15.9115400828       -3.6540102443       -0.3711120735
 O       -17.0492226506       -4.1195799923       -0.5476661149
 C       -15.0784808431       -4.0298572092        0.8223871258
 C       -13.5073665094       -4.1962749785        0.4188328025
 O       -12.7379392453       -3.2025153391        0.6062682529
 C       -13.0796938855       -5.5239081363       -0.1173103560
 C       -12.0597329741       -5.4604745134       -1.2584385534
 C       -12.5265688986       -6.1673844631       -2.5374109828
 O       -13.6346812053       -5.9033805125       -3.0686021717
 C       -11.7247405339       -7.3519926173       -3.1309693604
 C       -10.2876320271       -6.7286666017       -3.6012621116
 O        -9.9931751831       -5.6444944118       -3.1464643752
 C        -9.3654066129       -7.5594921726       -4.4766550208
 C        -7.8384752939       -7.3725066862       -4.2259478324
 C        -7.4281220964       -5.9327882055       -4.5407045310
 O        -8.0146091974       -5.2662029711       -5.3439819976
 C        -6.1385124965       -5.4589631124       -3.8406960921
 C        -4.9374721004       -6.1420262310       -4.7460397051
 O        -5.0824269734       -7.3356555084       -4.8854625416
 C        -4.1330047297       -5.2751117499       -5.7299606162
 C        -2.6382773353       -5.2617203309       -5.3137731994
 C        -2.0427075278       -3.8622724523       -5.7273130312
 O        -2.6988310032       -2.8617608835       -5.9246298053
 C        -0.4465921401       -4.0008384651       -6.0600368985
 C        -0.2083673681       -4.6092166208       -7.5103592803
 O         0.0539407361       -5.7814954213       -7.6777003719
 C        -0.5282680573       -3.7506940146       -8.7668694054
 C        -0.2866430740       -4.6419360632       -9.9616242440
 C         1.1735647827       -5.0061400867      -10.0302233864
 O         1.9879930269       -4.4330355401       -9.3636709502
 C         1.5981899746       -5.7706436188      -11.2730100588
 C         1.5810574250       -4.5947344865      -12.3883714762
 O         0.7537755349       -4.5426712512      -13.2822883963
 C         2.4666056588       -3.2886421968      -12.1590727831
 C         2.3040034699       -2.2482240723      -13.3319647004
 C         3.0051257759       -0.9910305257      -13.0775563114
 O         2.4737735768       -0.0597427213      -12.5392614661
 C         4.4568517364       -0.7858841644      -13.6389638742
 C         4.5179214154        0.2742073363      -14.7273126318
 O         4.9535436115        0.0587573379      -15.8359473330
 C         3.8480496914        1.6657285699      -14.5901266579
 C         4.2309277664        2.7063719265      -13.4828546230
 C         5.7428309354        3.1677619662      -13.6063525733
 O         6.4095457910        2.6400740503      -14.4808649860
 C         6.2626365144        4.2841741087      -12.5850283861
 C         6.7330065774        5.4669350590      -13.4466978097
 O         6.7146595135        6.5812833553      -12.9669730838
 C         6.9786065499        5.2078187518      -14.9878553168
 C         6.8994899315        6.5465468197      -15.7576440935
 C         6.5589717733        6.1676771510      -17.2901231953
 O         6.5316065717        5.0044862430      -17.6356932737
 C         6.1608466827        7.2088238115      -18.3522599979
 C         7.2928065587        7.2096866225      -19.4505111435
 O         8.3340611845        7.8021714445      -19.1947527961
 C         6.8484763843        6.4419086157      -20.7389682459
 C         7.9292876776        6.2607074844      -21.8070453872
 C         7.7245821913        5.0747613873      -22.6269743379
 O         6.7072968789        4.5267668188      -22.9423680145
 C         9.1540478365        4.5295245739      -23.2861082781
 C         9.6543815323        3.1365938334      -22.6995704226
 O         9.9096198702        2.2080748791      -23.4009997353
 C         9.6342033256        3.0336299885      -21.1325588709
 C         9.3565818089        1.6481022500      -20.6418884851
 C         8.2565957452        1.6005224903      -19.5008248419
 O         7.8845986966        2.6134276630      -18.8957341024
 C         7.5060736984        0.2172736686      -19.0112959634
 C         6.0561240794        0.5530298884      -19.2141335457
 O         5.5471361976        1.4411583672      -18.5365389578
 C         5.1380264213       -0.1891619050      -20.1325497289
 C         7.9829788700       -1.0593397498      -19.8643251060
 C         7.9810401714       -0.0753700525      -17.6121791031
 C         8.9421787791        4.2670285630      -24.8039129099
 C        10.4096270816        5.3193676491      -22.9875163569
 C         4.7589218830        6.8641468421      -18.8828356264
 C         6.0221558627        8.7089197292      -17.8920816196
 C         5.2791750410        4.6417459403      -11.4651200938
 C         7.6846923008        3.8015314153      -11.9654879592
 C         5.4918853186       -0.3531686738      -12.5632576970
 C         5.1478419983       -2.0930545943      -14.2971334067
 C         3.0319538369       -6.2820734584      -11.2124964231
 C         0.4680781940       -6.7645287052      -11.8227377105
 C         0.2704304700       -2.6101787636       -6.0954565275
 C         0.2969257319       -4.9274859488       -5.0477967774
 C        -6.1479882553       -3.8739818337       -3.8164235545
 C        -5.9756300660       -5.9526759250       -2.3721697455
 C       -11.4142608157       -8.4491169925       -2.0914594035
 C       -12.6182648511       -7.8625358053       -4.2701625941
 C       -15.1470526167       -2.9320704897        1.9215319943
 C       -15.6671397755       -5.4125335204        1.3904253375
 C       -14.9879652864       -4.1982971231       -5.6075569074
 C       -16.1778228271       -1.8975249129       -5.7950815388
 C       -20.4673302333       -6.7977557416       -5.8594105000
 C       -22.4167655458       -5.3486785277       -5.1897203809
 H       -22.7918651649       -7.7114656301       -4.1034201812
 H       -22.9205660955       -6.9960326705       -2.4741329384
 H       -21.6961498290       -8.4421649033       -2.9014740888
 H       -20.2344402888       -2.6420740426       -5.9188377032
 H       -20.6896912082       -4.0302862579       -6.9416558698
 H       -18.2702391527       -2.9879178403       -7.1607526120
 H       -18.5816621975       -4.6956243815       -7.1934834554
 H       -14.4113272164       -2.1464707076       -2.9775557983
 H       -14.4405092473       -3.8363027341       -2.5753208021
 H       -16.0438165506       -1.5750627646       -1.1993080025
 H       -14.4928330116       -2.1265859879       -0.7099872853
 H       -13.9816869472       -6.0408293059       -0.4449582474
 H       -12.7194350417       -6.2001267112        0.6536220701
 H       -11.0910341071       -5.9340010969       -0.9109043229
 H       -11.9303410464       -4.4422305716       -1.5295218792
 H        -9.5224856577       -7.3180146009       -5.5053006873
 H        -9.6105620394       -8.5886620720       -4.3343659161
 H        -7.4467416050       -8.0358564102       -4.9315128036
 H        -7.5086762165       -7.6549053364       -3.2116353369
 H        -4.4781804348       -4.2841072204       -5.8248504599
 H        -4.1311001134       -5.7128167792       -6.6928518038
 H        -2.0910729005       -6.0309034103       -5.9621076068
 H        -2.4808962263       -5.5328021327       -4.2296115435
 H         0.1224991923       -2.8544992610       -8.7538565116
 H        -1.5869521637       -3.4441966860       -8.7787442420
 H        -0.7279753851       -4.1876170064      -10.8437965986
 H        -0.6692519333       -5.5917976177       -9.7708243654
 H         3.4796788259       -3.5336715201      -11.8443430095
 H         1.9763557362       -2.7185703571      -11.4149757822
 H         1.1846003334       -1.9523665624      -13.3717981902
 H         2.6104959091       -2.7502806083      -14.2833215268
 H         2.8352591103        1.4387236460      -14.4301423173
 H         4.1309538335        2.1332883758      -15.5319725860
 H         4.0584643251        2.2843201958      -12.4526870997
 H         3.5664079649        3.5940658996      -13.5587060764
 H         6.0968792677        4.6733409748      -15.3528049118
 H         7.8575894603        4.6822462996      -15.2432930297
 H         7.9603026615        7.1019399425      -15.8799697547
 H         6.2109759779        7.3249275942      -15.2948365300
 H         6.0195229266        7.0386666864      -21.1270546801
 H         6.3962104971        5.5269198778      -20.4209236590
 H         8.9618915085        6.1703446306      -21.3803314005
 H         7.9301120016        7.1312698181      -22.4570798927
 H         8.8196192419        3.6837347023      -20.8299272114
 H        10.5185609845        3.4620038132      -20.6756645137
 H        10.2876440532        1.1544604762      -20.2871244628
 H         8.8778445645        1.0927857343      -21.3808115896
 H         4.5954831654       -0.9423195001      -19.6285199206
 H         5.5535590693       -0.5506172661      -21.1115590449
 H         4.4117976725        0.6135810100      -20.3535042891
 H         7.2136166231       -1.8307324877      -19.6027366669
 H         8.9959997906       -1.2317602219      -19.6222229791
 H         7.8596037251       -0.7206401835      -20.9306130577
 H         8.8926518343       -0.6099343936      -17.6460974971
 H         7.3338396156       -0.7110820139      -17.0863507116
 H         8.0550255553        0.8050067909      -17.0310433554
 H         8.0433065357        4.6627219682      -25.0346289410
 H         8.8951525943        3.2308647171      -25.0329152441
 H         9.7320982675        4.5805723099      -25.5220885853
 H        11.2397157083        4.7043852067      -23.3196586735
 H        10.4562160768        5.5656730234      -21.9104675551
 H        10.4966305820        6.3401455778      -23.3831494635
 H         4.0012618218        6.9527814378      -18.0894841038
 H         4.7736803822        5.9828874275      -19.5461310901
 H         4.5804797770        7.7122043369      -19.4850528558
 H         6.9999556565        9.0964358047      -17.8395063769
 H         5.4969132806        8.8694158824      -16.9055893141
 H         5.4544484821        9.2640913125      -18.5974175631
 H         5.7418503817        5.2716987596      -10.6326877807
 H         4.9077095762        3.7952450014      -10.9258575490
 H         4.3575057565        5.1238609777      -11.8597203632
 H         7.6184832871        3.2652815634      -10.9827478249
 H         8.2735012385        4.6922773727      -11.7214872378
 H         8.0145527411        3.0891987113      -12.7587217292
 H         6.3881654916        0.1886959788      -13.0000964478
 H         6.0065588971       -1.0835156647      -11.9070431266
 H         5.0574643014        0.4112058203      -11.8722750340
 H         5.2239615656       -2.8773451152      -13.4674096264
 H         6.1314146011       -1.9145164625      -14.6928001459
 H         4.4550410587       -2.4852520149      -15.0505473216
 H         3.0710465995       -7.0887630378      -10.5509083664
 H         3.6043441882       -5.5149701963      -10.6753973369
 H         3.4614023169       -6.7315478524      -12.0983916780
 H        -0.4980286444       -6.2719464581      -11.9751971796
 H         0.4495461648       -7.5652298984      -11.0853480065
 H         0.6837046500       -7.1937344528      -12.8390236387
 H         0.6412878038       -2.4245279978       -5.1186845160
 H        -0.3320289235       -1.7882728086       -6.4430173839
 H         1.1153272023       -2.5676175464       -6.8084634145
 H        -0.4082275559       -5.7695217888       -4.8844963065
 H         0.7325440845       -4.4852698324       -4.1959243684
 H         1.1131944788       -5.3786293703       -5.6042497259
 H        -6.0731316939       -3.4883466109       -4.8712970543
 H        -5.3917816630       -3.4591709454       -3.1253979543
 H        -7.0818911609       -3.4278875708       -3.5443739275
 H        -6.7922192289       -5.5013090912       -1.7842519068
 H        -5.0448492897       -5.7125001386       -1.8816684787
 H        -6.0604824684       -6.9815225541       -2.2565761983
 H       -12.2477377694       -8.5526295823       -1.4325986749
 H       -10.5575849546       -7.9925794451       -1.4990809743
 H       -11.2759072436       -9.4132572066       -2.5497851021
 H       -13.4760810026       -8.3202816753       -3.8012661578
 H       -12.2827260398       -8.6626373271       -4.8795859851
 H       -12.8671092353       -6.9621030120       -4.8537603488
 H       -14.2104265294       -2.8622357281        2.4084404756
 H       -15.8050387017       -3.2867466795        2.6925708026
 H       -15.4589377735       -2.0089085841        1.5558650721
 H       -16.0608741086       -5.9503913871        0.5580740708
 H       -16.4649847131       -5.2100696373        2.0675476972
 H       -14.9441973339       -6.1066793161        1.7079540280
 H       -15.2154476714       -5.2368120323       -6.0274112235
 H       -14.4058196513       -4.4799144625       -4.7815018976
 H       -14.3656132188       -3.5372852891       -6.2326726987
 H       -16.8995971495       -1.2255145129       -5.4095982686
 H       -16.3480421378       -1.9179032123       -6.8511196814
 H       -15.2429956663       -1.3779150365       -5.7418092280
 H       -19.4736156458       -7.2360938720       -5.6663833949
 H       -20.3668634498       -6.2467215467       -6.7608437606
 H       -21.1708235810       -7.6608709741       -6.0665871491
 H       -22.5526778988       -5.0226870399       -6.2415536156
 H       -22.6931913297       -4.4363608688       -4.6449842394
 H       -23.1659131325       -6.1072317866       -5.0535755481
 Na      -18.4204269590       -4.6497861207       -2.3737897449
 Na        6.4837056820        2.7223474851      -16.9724151718
