232

 C        -6.0862372259        1.2227002543      -14.4683860125
 C        -5.5327569196        2.4802096942      -13.8880371938
 O        -4.3763150290        2.6518937819      -13.5871521205
 C        -6.5479110974        3.5514001429      -13.1999653118
 C        -5.7490133607        4.9217788178      -13.1237939489
 O        -4.8694846714        5.0662336470      -12.2734438412
 C        -6.2726788705        6.1129990912      -14.0310697524
 C        -5.3336431315        7.2863747384      -13.8605520084
 C        -3.9749157710        7.0353293249      -14.3901723869
 O        -3.6353099307        5.8922994122      -14.5715012845
 C        -2.8461217998        8.1372854074      -14.4082760437
 C        -2.0936253282        8.0580279737      -13.0585432634
 O        -1.9933909066        6.9998178548      -12.4610405389
 C        -1.3558528647        9.3176336740      -12.4772134523
 C        -1.7461728645        9.5545924543      -10.9911412257
 C        -3.2245406022        9.8974839296      -10.8441961619
 O        -3.9465861973        9.4356952603      -11.7035171220
 C        -3.5701505380       10.9588105876       -9.8310319046
 C        -2.7725930855       10.8123384177       -8.4261820162
 O        -1.5951576559       11.1167227214       -8.4812469697
 C        -3.4416411817       10.4439556059       -7.0821044557
 C        -2.7656880705        9.2426426615       -6.3823864526
 C        -3.8081209611        8.0949958367       -6.0508484036
 O        -4.9171282737        8.1245511440       -6.6103581020
 C        -3.4021598540        6.8860236663       -5.1947832972
 C        -2.3066211835        6.0605080532       -5.9269568637
 O        -1.2428894381        5.6879446122       -5.4475293254
 C        -2.5639059932        5.5483169891       -7.3861962257
 C        -1.2373634002        5.0937561100       -8.0032103206
 C        -1.2930973868        4.7017788577       -9.4673793084
 O        -2.2724782680        5.0576966653      -10.0768373823
 C        -0.1385307561        3.8744389790      -10.1254175925
 C        -0.8453589431        2.5865351499      -10.7621747793
 O        -1.7132301648        2.7072517946      -11.5773497714
 C        -0.1287869425        1.2112074939      -10.4960588275
 C        -0.7063631484        0.0860408054      -11.4154807999
 C        -1.2486815688       -0.9693869358      -10.4651468171
 O        -1.3822915225       -0.8225323238       -9.2334445453
 C        -1.9031733792       -2.2143701034      -11.2234542889
 C        -0.9571716033       -3.3384308191      -10.7623509753
 O        -0.0183621496       -3.6209687343      -11.5076273638
 C        -1.3283880974       -4.0068838828       -9.4872730161
 C        -0.2849528393       -4.7864819709       -8.7368241968
 C        -0.8080855306       -5.9649877831       -7.8224878940
 O        -1.8553491165       -6.5350847489       -8.0046025828
 C         0.1828924293       -6.4907167830       -6.6604015908
 C         0.9156991432       -7.6817794272       -7.5246517559
 O         0.3330457205       -8.6934583887       -7.9012041942
 C         2.3398112268       -7.3911035765       -8.0051889402
 C         3.2076249618       -8.5477776889       -7.9652058876
 C         3.2357153150       -9.0657864011       -6.5429602555
 O         2.6552204925       -8.3769030572       -5.6968743203
 C         3.9150122938      -10.4636154284       -6.1572099888
 C         2.9796757931      -11.5713746496       -6.9190475038
 O         3.3474103479      -12.3509194392       -7.7811884388
 C         1.5271383712      -11.5337610377       -6.4552435498
 C         0.7417882895      -12.4958762781       -7.3375541584
 C        -0.6979037860      -11.9303162038       -7.5315795819
 O        -1.0839675760      -10.9482513246       -6.8969195595
 C        -1.6404317401      -12.6464318630       -8.5425750937
 C        -2.8554969974      -11.8150745599       -8.7304991970
 O        -2.6428181092      -10.7510278324       -9.3408278748
 C        -4.2475907833      -12.2383827965       -8.1812961219
 C        -5.3269674125      -11.5305896027       -8.9175743411
 C        -5.5192309267      -10.1128012196       -8.2345661857
 O        -4.6197771544       -9.4322137763       -7.7957261067
 C        -6.8664735013       -9.4050598957       -8.4677456326
 C        -6.8514539160       -9.1212867296      -10.1315939897
 O        -7.4030397505       -9.9622009249      -10.8910729162
 C        -6.2033846124       -7.7933728660      -10.6174659549
 C        -6.5140219280       -7.3730383614      -12.0252364605
 C        -5.1712944775       -6.9957780330      -12.7352273090
 O        -4.1019810437       -7.2108169213      -12.2429563007
 C        -5.3507008254       -6.4265521146      -14.2297400189
 C        -6.4347393610       -5.2220741583      -14.1241931473
 O        -6.1642561012       -4.1552100198      -13.6103713299
 C        -7.8592858622       -5.3625523675      -14.6355209851
 C        -8.7800750642       -4.2651566220      -14.3999222738
 C        -9.2741533002       -3.6919241183      -12.9708143185
 O        -9.0688145144       -4.3298055361      -11.9264532947
 C       -10.0008762823       -2.2541619734      -12.8448340413
 C        -9.1135705132       -1.3421484744      -11.8202979020
 O        -8.8723295256       -0.1670422999      -12.1963050900
 C        -8.6496733814       -1.8840163814      -10.5336549998
 C       -10.2476438930       -1.4511616574      -14.0655462025
 C       -11.3417673274       -2.5567947813      -12.1211766669
 C        -4.0564505959       -5.8973766858      -14.8555148254
 C        -6.0418953874       -7.6441715680      -15.0451175659
 C        -8.1834354434      -10.1627886805       -8.1540051260
 C        -6.9322562402       -8.0452531724       -7.6436025246
 C        -0.9271729655      -12.8672260202       -9.9444166610
 C        -2.0250190842      -13.9892183886       -7.8005798976
 C         5.4005134027      -10.4982487624       -6.7374439609
 C         4.0287941806      -10.7711458706       -4.6180850170
 C         1.1956392719       -5.4491541644       -6.1218086001
 C        -0.5790499280       -7.2362022057       -5.4979555805
 C        -3.4792523625       -2.4469923035      -10.8643386570
 C        -1.8442459202       -2.0581297357      -12.7232833731
 C         0.3657118846        4.7889378408      -11.2892659584
 C         1.0490379910        3.5671622339       -9.1737878530
 C        -2.8207975874        7.2353249556       -3.8195912285
 C        -4.7801076429        5.9916718011       -5.1362078509
 C        -3.3203410277       12.4005908459      -10.5048963761
 C        -5.1081058846       10.8313428592       -9.5072222061
 C        -1.7995567423        7.5891147472      -15.4877802112
 C        -3.3571782589        9.5293241719      -14.8977579952
 C        -7.8788245056        3.7077478659      -13.9074030565
 C        -6.8629739197        3.1071265279      -11.6803784790
 H        -6.4257987313        0.5583470591      -13.6501049825
 H        -5.3518129782        0.6486575282      -15.0621479119
 H        -6.9849796693        1.4218853647      -15.1167673962
 H        -7.1808682050        6.4390027987      -13.5074777997
 H        -6.4673872224        5.8414038952      -15.0661712708
 H        -5.2152722251        7.3528501188      -12.7923833801
 H        -5.7964621101        8.2750348455      -14.1295989742
 H        -1.8361958150       10.2370767913      -12.9345507487
 H        -0.2691003190        9.2951629573      -12.6275550462
 H        -1.1246053794       10.3693597451      -10.6927535963
 H        -1.4529505735        8.6318595085      -10.4450148255
 H        -4.4017025221        9.9899591171       -7.2439647190
 H        -3.4841537865       11.3656070837       -6.4825964140
 H        -2.2524007865        9.6153826038       -5.4748363595
 H        -2.0023888275        8.7191157738       -7.0273862870
 H        -3.0467275817        6.3233321073       -8.0249149811
 H        -3.3245976111        4.7368563113       -7.2388400160
 H        -0.8547156556        4.2188605927       -7.4353316496
 H        -0.5281665533        5.8721246980       -8.0074817224
 H        -0.1479880198        0.8628034180       -9.4513265222
 H         0.9647421234        1.4210641666      -10.8995382297
 H         0.2207296809       -0.2640763434      -11.9281794752
 H        -1.3877199438        0.5366400367      -12.1753219847
 H        -2.2640100017       -4.6095210731       -9.7667285080
 H        -1.6915272701       -3.2173232192       -8.8926175428
 H         0.1761913571       -4.1304059139       -7.9696942685
 H         0.5534915018       -5.1744403093       -9.2851934762
 H         2.8826291216       -6.5812622943       -7.5590089091
 H         2.3513573186       -7.2605773867       -9.1044692884
 H         4.1743213934       -8.2728735585       -8.3568154349
 H         2.8942732503       -9.3239204222       -8.6382206891
 H         1.0412488971      -10.5015711304       -6.4559525615
 H         1.4799794796      -12.0733425160       -5.4779998897
 H         0.6311059987      -13.3696551420       -6.7595792665
 H         1.1193896546      -12.7384029491       -8.3326718630
 H        -4.1432485059      -11.8980323556       -7.1669075342
 H        -4.6507768726      -13.3342007867       -8.1907272905
 H        -6.2316936731      -11.9718882656       -8.7911028413
 H        -5.0431149290      -11.4836842609       -9.9747861171
 H        -5.1121607813       -7.9756827902      -10.5287388927
 H        -6.3822020576       -6.9281062895       -9.8841679865
 H        -7.3109853293       -6.5989295738      -12.0624033292
 H        -6.8645535807       -8.2669473031      -12.5990318302
 H        -8.2841707498       -6.2653343280      -14.2334179873
 H        -7.8180531835       -5.5152531339      -15.6949553345
 H        -9.7151882682       -4.4981190288      -14.9762254625
 H        -8.5080277809       -3.3329297910      -14.9219442929
 H        -9.5802859936       -1.9649400046       -9.9180391642
 H        -7.9957153565       -1.1516156955       -9.9513557573
 H        -8.1758971726       -2.8308856045      -10.5756645325
 H       -11.2543802641       -1.7003818796      -14.5276616443
 H        -9.4712793249       -1.4834904572      -14.8111749617
 H       -10.2127264729       -0.3880326474      -13.7938398735
 H       -11.9646505033       -1.6705846095      -12.1589187467
 H       -11.1224586096       -2.6779132269      -11.0278154088
 H       -11.9110736209       -3.3281370556      -12.4662052365
 H        -4.1461158220       -5.9271255581      -15.8873840858
 H        -3.1604148662       -6.4343285725      -14.6899461769
 H        -4.0045345027       -4.9101782556      -14.5087746274
 H        -5.8150760221       -7.4963220759      -16.0592600522
 H        -7.1710931509       -7.6614555401      -14.9793348343
 H        -5.6618749879       -8.6485930368      -14.8903762373
 H        -9.0652123987       -9.5396023457       -8.0788304422
 H        -8.1739493931      -10.8957869925       -7.2840044649
 H        -8.3781125008      -10.8055693396       -9.0300490979
 H        -7.5637421424       -7.2769583769       -8.0363199443
 H        -5.9382068269       -7.6430603931       -7.5248375772
 H        -7.3043708401       -8.3030984592       -6.6299353883
 H        -0.0804786091      -13.5158582220       -9.9105099319
 H        -0.7683135274      -11.9217776315      -10.4081987538
 H        -1.7234241397      -13.2558096496      -10.6002038257
 H        -1.4054490215      -14.2670409805       -6.9338768359
 H        -1.9123392815      -14.9059897001       -8.3340096189
 H        -3.0520977335      -14.0036114097       -7.4099489441
 H         5.4766266246      -10.2460602844       -7.7922656450
 H         5.8151279138      -11.4660216694       -6.8042979518
 H         6.0472944526       -9.9678449245       -6.1307102657
 H         3.1178517614      -10.9325010743       -4.1122349567
 H         4.5661631058      -10.0039767710       -4.0417362301
 H         4.6282068166      -11.6890970743       -4.5039056667
 H         1.8926181165       -5.9207505624       -5.4288390799
 H         0.6266568697       -4.6868129142       -5.6073267716
 H         1.7730061071       -4.8886028663       -6.9019959168
 H        -0.7469869470       -6.7574184197       -4.5144902430
 H        -0.0549302437       -8.1467460496       -5.3791028545
 H        -1.6472311676       -7.4399428260       -5.8891122231
 H        -3.9140976060       -1.8739428093      -11.6881460042
 H        -3.7205075360       -2.0017014449       -9.8921613715
 H        -3.8356789459       -3.4655158925      -10.9597653546
 H        -0.8063612883       -2.1340447025      -13.0849064567
 H        -2.2822791124       -1.1392893195      -12.9459180457
 H        -2.3606089706       -2.8881023132      -13.1606886865
 H         0.8512194060        5.6450481179      -10.7878413942
 H        -0.4927005940        5.0176909113      -11.9212957685
 H         1.1295565252        4.2186741686      -11.7898097301
 H         1.6448617618        2.8649426521       -9.7803606579
 H         0.7015950619        3.2445275819       -8.2244646136
 H         1.6170059314        4.5081202544       -9.2171519575
 H        -1.7833689804        7.5335154211       -3.8974968131
 H        -2.6948922632        6.3622734227       -3.1711307266
 H        -3.4459256525        7.9843686077       -3.2192451350
 H        -5.2456770424        5.7760138768       -6.1105928396
 H        -5.5047833485        6.5801065607       -4.5402401393
 H        -4.3624045728        5.0050169654       -4.7340091859
 H        -4.2535236963       13.0094895012      -10.3582088783
 H        -3.0561107356       12.2553875229      -11.5632774062
 H        -2.4445306154       12.7934252386      -10.0362977323
 H        -5.4197865146        9.8494983734       -9.1538062797
 H        -5.8092850840       10.8729397041      -10.3360495545
 H        -5.3314418919       11.6289892286       -8.8218002998
 H        -1.5979865511        6.4653630018      -15.2790811581
 H        -0.8482232551        8.1793529929      -15.4554491531
 H        -2.2052453097        7.6262551399      -16.5525824535
 H        -4.2280730248        9.7039490523      -14.3800430398
 H        -3.7004249386        9.4986232233      -15.9395184376
 H        -2.5777513876       10.3354899162      -14.8582308844
 H        -7.7280119192        4.0574871835      -14.9339896120
 H        -8.5068523904        4.5099182913      -13.4781274224
 H        -8.4256714710        2.7560457878      -13.8607432399
 H        -5.9207250343        2.7403251129      -11.2770089868
 H        -7.5704796349        2.4574183419      -11.3181453303
 H        -7.2073712346        3.8892234383      -11.0825388677
 Na       -2.8008078759        4.8147034805      -12.4326640282
 Na       -2.1751439738       -9.1282460020       -7.9059562693
