232

 C        -5.6600149359        1.3767312462      -14.5428197729
 C        -5.3718287086        2.5468443019      -13.5138189520
 O        -4.2908554574        3.0179426848      -13.2658547554
 C        -6.6118782525        3.4619259533      -12.9989445000
 C        -6.0670064089        4.9256600415      -13.0933971680
 O        -5.5584240175        5.5360134562      -12.1766350336
 C        -6.1919659594        5.4613451477      -14.4969243545
 C        -5.4293350199        6.7720480807      -14.7737697165
 C        -3.8745678384        6.5993195053      -14.7109061805
 O        -3.3402458578        5.5113635378      -14.7504623511
 C        -3.0145360243        7.9003385124      -14.5601490801
 C        -2.2377745804        7.9331205847      -13.0879197711
 O        -2.0557475664        6.9378940414      -12.4437892173
 C        -1.2955113125        9.1289955574      -12.7214310917
 C        -1.5579973225        9.8749871018      -11.3782474246
 C        -3.0011555451       10.0494472014      -11.0526773579
 O        -3.8605320394        9.3127143085      -11.5775241964
 C        -3.3776743232       11.0812703868       -9.9523145258
 C        -2.5570822956       10.6956304308       -8.6251212786
 O        -1.4096438431       10.4811131610       -8.6776059609
 C        -3.1869680429       10.8067458195       -7.3129314257
 C        -2.7433493958        9.8491380726       -6.2474482851
 C        -3.5622988253        8.5558631781       -6.3257108250
 O        -4.4419894894        8.3901802414       -7.1809626550
 C        -3.1101106876        7.4450095365       -5.2456130177
 C        -1.9220454994        6.5810296757       -6.0252720014
 O        -0.7405908487        6.7163189142       -5.7564802841
 C        -2.3066796378        5.8053604978       -7.2752140161
 C        -1.3031419052        4.8677924511       -7.7563827889
 C        -1.3841433412        4.7003794950       -9.2776958078
 O        -2.4339111948        4.9204517844       -9.8053900992
 C        -0.1012090461        4.1006677599      -10.0484245543
 C        -0.6351814773        2.8613053841      -10.9173382332
 O        -1.1353462547        3.0975871904      -12.0164412092
 C        -0.5526460015        1.5647565414      -10.2189145922
 C        -1.3924008858        0.4998113074      -10.8532567215
 C        -1.6640577336       -0.8252902749      -10.0281761695
 O        -1.4915020615       -0.9134166934       -8.8078702551
 C        -2.3683284025       -2.0092966795      -10.7370308340
 C        -1.5399947172       -3.3456849397      -10.4726207489
 O        -0.8626264060       -3.9217871161      -11.3043253017
 C        -1.5906781378       -3.8993272017       -8.9244479836
 C        -0.4986781363       -5.0246227405       -8.7952550839
 C        -0.8301192695       -6.1042456124       -7.7218519198
 O        -1.8816121373       -6.7212987691       -7.7774064148
 C         0.3479945299       -6.7878502377       -6.8156903986
 C         0.9551360296       -7.8563254248       -7.7498422258
 O         0.2953272385       -8.8223668952       -8.0311505134
 C         2.3612444531       -7.7248395492       -8.3239161448
 C         3.2825217606       -9.0074167931       -8.0472206808
 C         3.3202583044       -9.2831236963       -6.6161515671
 O         2.7953570694       -8.7002835428       -5.7052565162
 C         3.9653741442      -10.6997079011       -6.3180420667
 C         2.9735845762      -11.9056136118       -6.6845102610
 O         3.3089133329      -12.6739702484       -7.5383156816
 C         1.6124452047      -12.0107628758       -5.9725480172
 C         0.6293759768      -12.9034173256       -6.6814452543
 C        -0.5156130979      -12.0594581247       -7.2374771801
 O        -0.8135151995      -10.9664555340       -6.7724325913
 C        -1.4627596619      -12.8143263677       -8.3171613526
 C        -2.6016236640      -11.8299565924       -8.7394197378
 O        -2.1576350066      -10.8694771918       -9.3674634540
 C        -4.0904076196      -12.0105483987       -8.4699226333
 C        -4.9530566442      -11.0695849180       -9.2709229399
 C        -5.4243192660       -9.8468849662       -8.5561442952
 O        -4.6104388887       -9.1989254208       -7.8716351128
 C        -6.9319064870       -9.3076580059       -8.6015793231
 C        -6.9634194430       -8.6889993369      -10.0592577952
 O        -7.3452394828       -9.4255936418      -10.9708479977
 C        -6.6761536544       -7.2283684177      -10.4096155131
 C        -6.8964926491       -6.8365582485      -11.8827591143
 C        -5.6890273773       -6.9521267057      -12.8847593473
 O        -4.5905879911       -6.9836031541      -12.4133412266
 C        -5.9466591099       -6.6861743649      -14.3881721707
 C        -6.4993049960       -5.1433118105      -14.6194595958
 O        -5.7186220064       -4.2424192530      -14.5770798881
 C        -7.9893557550       -5.0528011446      -14.9331299959
 C        -8.7305014499       -3.7127585855      -14.6138040684
 C        -8.9439720106       -3.5732159641      -13.0965866189
 O        -8.2616969620       -4.2234768190      -12.3217304436
 C       -10.0523000720       -2.5436779517      -12.5914650004
 C        -9.1849036327       -1.4510574476      -11.8775884316
 O        -8.7779636273       -0.4275609472      -12.4605634566
 C        -8.4208329782       -1.7942103590      -10.6126698282
 C       -10.8040585255       -1.9533534048      -13.7829778757
 C       -11.0824299928       -3.2921361882      -11.6629211865
 C        -4.5036027971       -6.8013467297      -15.1340399243
 C        -6.9539874206       -7.7993944643      -14.9350634093
 C        -7.9744391569      -10.3779354111       -8.5530807421
 C        -7.0949173560       -8.3206551671       -7.4408837786
 C        -0.7369829754      -13.1511265322       -9.7307030997
 C        -1.8992976902      -14.1753748295       -7.6472970944
 C         5.3441971359      -10.8464302325       -7.0471014420
 C         4.0483140722      -10.7077899868       -4.7519918825
 C         1.3355650942       -5.7075755617       -6.3090013262
 C        -0.2987097549       -7.4204327285       -5.4745648594
 C        -3.7193856877       -2.2836210051       -9.9372122518
 C        -2.6030692782       -1.7814599828      -12.2611151130
 C         0.5268599989        5.1927590467      -10.9395617504
 C         1.0252548217        3.6278947289       -9.0836861097
 C        -2.4176806741        8.0784626880       -4.0959108866
 C        -4.3373261143        6.5857300849       -4.8013410636
 C        -3.1522806738       12.5279192566      -10.4447163086
 C        -4.8852946060       10.8689918780       -9.6730714593
 C        -1.8106762332        7.7272921804      -15.6280326970
 C        -3.8194804068        9.1377614848      -14.7594364519
 C        -7.8945114920        3.2005758480      -13.8454704392
 C        -6.7557484418        3.0156391573      -11.5186907835
 H        -6.5779243269        0.8085589289      -14.3818124660
 H        -4.8824805061        0.6745695916      -14.3400999179
 H        -5.6586992964        1.7619073298      -15.5742905888
 H        -7.2628525620        5.5817657889      -14.6214889373
 H        -5.9537595076        4.6393848156      -15.1785620375
 H        -5.8250216573        7.5636499008      -14.0874912536
 H        -5.6516948893        7.0667287308      -15.7697643290
 H        -1.2128380497        9.8408988396      -13.4722787657
 H        -0.2869796808        8.7335777436      -12.5764421884
 H        -1.0482920806       10.8917151922      -11.5274860832
 H        -1.1746264027        9.4352388455      -10.4318403419
 H        -4.2964789824       10.8268459675       -7.2920572178
 H        -2.9063822483       11.6991420821       -6.8902606387
 H        -2.7014427360       10.2549234313       -5.2582490461
 H        -1.7034518995        9.5912538168       -6.3812441105
 H        -2.3898491923        6.5672343223       -8.0479433459
 H        -3.2553254375        5.3245669064       -7.1478822159
 H        -1.3612517143        3.8848448068       -7.3363633422
 H        -0.2892859698        5.2569279315       -7.4509956758
 H        -0.8359253301        1.7276155844       -9.1533665943
 H         0.4110415329        1.2869678391      -10.0431577442
 H        -0.8671922084        0.2247121040      -11.7901915841
 H        -2.4110397779        0.8564927787      -11.1703113109
 H        -2.5009095869       -4.3081834964       -8.8541535018
 H        -1.3840919064       -3.0041212213       -8.2384110829
 H         0.6123743387       -4.6587852823       -8.8134383633
 H        -0.5095226231       -5.5661569726       -9.7451148003
 H         2.9463697989       -6.8802827984       -7.8999060529
 H         2.4536245857       -7.3981608453       -9.3696899158
 H         4.2646937530       -8.8596523083       -8.4894067912
 H         2.8104967847       -9.8559352701       -8.5533522584
 H         1.3399526702      -10.9483010631       -5.7587474987
 H         1.8052639813      -12.4099722026       -5.0473979099
 H         0.1742385906      -13.4547567948       -5.8484617725
 H         1.0695841176      -13.5684824273       -7.3667563974
 H        -4.3077394904      -11.8714442798       -7.4026756299
 H        -4.3764942598      -13.0217883712       -8.5916038438
 H        -5.8600519062      -11.6334324844       -9.6457344668
 H        -4.5225703230      -10.7050938793      -10.2171563212
 H        -5.7984819855       -6.9013751746       -9.9370928965
 H        -7.3833757916       -6.6977089850       -9.8315397385
 H        -7.2439939117       -5.7654998044      -11.8351825887
 H        -7.7986971398       -7.4215986346      -12.2281099608
 H        -8.5143427386       -5.8606596054      -14.5136741412
 H        -8.1015016560       -5.1472062939      -16.0012619158
 H        -9.7243482905       -3.7886539010      -15.0365720540
 H        -8.3059682037       -2.8338655172      -15.1294045348
 H        -8.7875561105       -1.4023170712       -9.6492472716
 H        -7.4252660515       -1.3822775832      -10.7946989296
 H        -8.2233600773       -2.8656290642      -10.5075522029
 H       -11.4467993293       -2.7474473531      -14.2589093127
 H       -10.0065370536       -1.6930037724      -14.4706443523
 H       -11.4452865634       -1.1608325087      -13.5761774135
 H       -12.0465767077       -2.7986996194      -11.7686092756
 H       -10.7889032872       -3.3946115656      -10.6669363785
 H       -11.0783294914       -4.3084731827      -11.9583482866
 H        -4.6760027198       -6.8052680298      -16.2044756137
 H        -3.9080865488       -7.5659798674      -14.7985995593
 H        -3.9301902421       -5.8802111521      -15.0466691458
 H        -7.1240363113       -7.5557059155      -15.9948257641
 H        -7.8678935878       -7.8724211296      -14.4610804439
 H        -6.5991776498       -8.8671554446      -14.8823611841
 H        -9.0455560114      -10.0830916353       -8.6282186043
 H        -7.9127073808      -10.7638722237       -7.5497383065
 H        -7.8003620650      -11.3020589484       -9.1352730274
 H        -7.9538189664       -7.6219778818       -7.5166404063
 H        -6.1863391504       -7.7465375349       -7.3224352202
 H        -7.2759070329       -8.8567169645       -6.5615272106
 H         0.1394544657      -13.7097054180       -9.4865195819
 H        -0.4741170402      -12.2423741142      -10.3246398631
 H        -1.2627415593      -13.8701461500      -10.2482459892
 H        -1.0521417663      -14.9451775512       -7.7320584436
 H        -2.7439718284      -14.6867831843       -8.1756345429
 H        -2.0662479282      -14.0800014104       -6.5775196201
 H         5.3383923638      -11.3620748904       -7.9715832825
 H         6.0309033329      -11.1258741462       -6.3271070321
 H         5.6318992349       -9.8651085019       -7.3863030892
 H         3.1620066217      -10.2696101244       -4.3403257831
 H         4.9324472554      -10.1999660498       -4.3657702900
 H         4.1316528678      -11.7556111243       -4.4613979676
 H         2.0907057742       -5.9781566330       -5.5806713265
 H         0.7589479963       -4.8614788538       -5.8486586084
 H         1.7661202714       -5.2667442983       -7.1898456737
 H         0.2041381127       -8.3397341370       -5.2328137955
 H        -1.3793621390       -7.6137191619       -5.4714051577
 H        -0.1288231093       -6.6938526482       -4.7381701530
 H        -4.5585003564       -1.7295714765      -10.3655802346
 H        -3.5716889146       -1.9213214485       -8.8299242353
 H        -3.9771256413       -3.3369541064       -9.9623176530
 H        -1.5692241563       -1.4108336939      -12.5749326278
 H        -3.1318409728       -0.8420831898      -12.4221843775
 H        -3.0791283480       -2.5933516286      -12.6799783902
 H         0.6714034590        6.0693902588      -10.3240266600
 H        -0.2744085894        5.4220004573      -11.6720567629
 H         1.3993304510        4.8009625122      -11.4332681448
 H         1.6969726543        2.9936314288       -9.6678044920
 H         0.6060861102        3.0685200565       -8.2044060447
 H         1.4752844944        4.5110261763       -8.6723215180
 H        -1.3962608024        8.3389609932       -4.4012675188
 H        -2.2423181322        7.2648685702       -3.3535512739
 H        -2.7390916889        8.9853434039       -3.6379744969
 H        -4.5871941537        5.9457891502       -5.6381996838
 H        -5.1362354403        7.2193869257       -4.3399652782
 H        -4.0595109703        6.0134076715       -3.8966352463
 H        -2.9489498162       13.2951350915       -9.6439025973
 H        -4.0075300109       12.8566864553      -10.9903351245
 H        -2.2473402683       12.4919411931      -11.0709492962
 H        -5.1387405333        9.8925813539       -9.2220993766
 H        -5.4885137485       11.1561216392      -10.5673551148
 H        -5.2204751375       11.5601195225       -8.9088985154
 H        -1.5307867877        6.6875043688      -15.8053815373
 H        -0.8323967407        8.2535174210      -15.4322174624
 H        -2.1580625521        8.0793695014      -16.5973209938
 H        -4.6369316600        9.2871772231      -14.0478933749
 H        -4.2624090382        9.1121821754      -15.7273521240
 H        -3.1576486245       10.0479171753      -14.7004631709
 H        -7.5751575876        3.0613377338      -14.8706804357
 H        -8.5090220701        4.0855192071      -13.6876065324
 H        -8.4435269431        2.3274032793      -13.5251706332
 H        -5.8336220667        2.7996909263      -10.8462957248
 H        -7.1828189907        2.0043408331      -11.5270829950
 H        -7.3675819839        3.6178771491      -10.8461059318
 Na       -3.1434231918        4.8161611472      -12.1581765779
 Na       -2.2175609003       -9.2723866341       -7.8345172237
