232

 C       -16.1568197875      -13.7526395599       -0.4611339798
 C       -15.8562410419      -13.8432297935       -1.9785296264
 O       -15.9295555519      -12.9111404587       -2.7668039028
 C       -15.3990048272      -15.3811787099       -2.4350000574
 C       -14.8524726435      -15.4578485513       -3.8863411093
 O       -15.6117029963      -15.1485550634       -4.7381852436
 C       -13.3681073749      -15.7531244273       -4.3034598826
 C       -13.4024445822      -15.5983019866       -5.7959965607
 C       -13.8322081745      -14.1855197706       -6.3440966166
 O       -13.4862787066      -13.1363626960       -5.7155888074
 C       -14.5777086334      -14.0471447651       -7.6730317414
 C       -15.2623817815      -12.6603145310       -7.7079662794
 O       -16.3065610936      -12.4858438289       -7.1743476788
 C       -14.6007893277      -11.3611583762       -8.1740585651
 C       -15.5584287076      -10.0777489498       -7.7813675313
 C       -15.4587606546       -9.6639214414       -6.3152526241
 O       -15.2399418530      -10.4069671706       -5.3262646276
 C       -15.5242946096       -8.1205159743       -6.1036213552
 C       -14.0618270329       -7.6588617798       -5.7904185417
 O       -13.1816582806       -8.5057954321       -5.8946456051
 C       -13.7913357982       -6.2584617460       -5.4419369793
 C       -13.3906936096       -5.4775273541       -6.7721148280
 C       -13.1932995613       -3.8538674413       -6.4115345480
 O       -13.6174845214       -3.3319510349       -5.3925868491
 C       -12.4963006175       -2.9864021392       -7.4968358952
 C       -10.9674286845       -3.1040390130       -7.2926730206
 O       -10.4819253725       -4.1482520879       -6.9974962218
 C       -10.0074816320       -1.8318857171       -7.4163915915
 C        -9.7779755811       -1.0155485765       -6.0949762552
 C        -9.8655211259        0.4538468210       -6.4490273766
 O       -10.3337756231        0.8089605138       -7.5371819013
 C        -9.4126995514        1.4629516979       -5.3632948685
 C        -7.9975236045        1.7609673818       -5.8682082729
 O        -7.0502548259        1.0316635030       -5.5991253496
 C        -7.8165266510        2.7387360435       -7.2036293026
 C        -6.5373702172        2.3640156077       -7.9192953026
 C        -5.7536733569        3.6469440734       -8.4100273111
 O        -5.4235729940        4.4631643478       -7.5896533492
 C        -5.5250835511        3.7221421430      -10.0328655927
 C        -4.5106181081        2.5556429337      -10.3827922136
 O        -5.0320114229        1.4696690192      -10.3597420682
 C        -3.0457474552        2.7137370382      -10.3775688829
 C        -2.2027596277        1.7066870296       -9.5722528275
 C        -0.7009785250        2.0648119673       -9.7843310555
 O        -0.2664940633        2.6903637648      -10.7420620878
 C         0.3420262025        1.4907236621       -8.8367243127
 C         1.9334672327        1.8815405859       -9.2575472038
 O         2.6421476135        1.0677132639       -9.7536063628
 C         2.4306086480        3.3888904202       -9.0784522497
 C         3.1977230442        3.8228329170      -10.3629642200
 C         2.6382459605        5.1866413826      -10.8315199176
 O         1.5956218417        5.6645734601      -10.3996171250
 C         3.6744570025        6.1293495896      -11.8372773976
 C         3.8457280086        5.1546540066      -12.9517713536
 O         4.7914336369        4.3669528390      -13.0051463711
 C         2.6286796128        4.9032798947      -13.9172161940
 C         2.9356241168        5.6198255955      -15.2845649021
 C         3.4366654259        4.7271102440      -16.4666279709
 O         3.9090056138        3.6663705972      -16.0331060954
 C         3.5640714275        5.1059164454      -17.9884407185
 C         5.1406387824        5.0950952493      -18.2097779432
 O         5.7556325463        4.3270219458      -18.9253079638
 C         5.8826128373        6.2633807079      -17.5790186808
 C         7.4332130202        6.1173535865      -17.6506232776
 C         7.6741204712        4.6861522351      -17.0984600361
 O         6.8863082234        4.4625621665      -16.1732615882
 C         8.9031941429        3.8245004674      -17.5610371350
 C        10.0408164392        3.9371657510      -16.2959186568
 O         9.8286988520        4.5714803665      -15.2808950707
 C        11.4383783552        3.3721838577      -16.6460912526
 C        12.1168943508        3.0680509654      -15.3013180453
 C        11.5121360230        1.8826355721      -14.5446508788
 O        10.7319645906        1.1520501932      -15.0521059118
 C        12.0977876479        1.5547359430      -13.0650407573
 C        11.0004515955        0.6007272990      -12.3308788762
 O        11.2721871026       -0.3813569884      -11.6601057071
 C         9.5811599248        1.2179592177      -12.4513034178
 C         8.6772227109        0.1410667279      -13.1053900908
 C         7.2670717510        0.7733141197      -13.3644286001
 O         7.1654787224        1.9589626300      -13.5316842218
 C         6.0679096083       -0.1611854470      -13.4344763703
 C         5.4956719141       -0.0372514470      -15.0063949200
 O         4.9802376531        1.0372605460      -15.3221622684
 C         5.5087034204       -1.1774344980      -15.9747153100
 C         6.3356286439       -1.5574666254      -13.1424449080
 C         4.9273289570        0.2343503885      -12.5386800365
 C        13.4144528695        0.8071497795      -13.1103803824
 C        12.2526166953        2.9824768777      -12.3370872899
 C         8.4289852532        2.2990526406      -17.4827059139
 C         9.5774971698        4.1946209801      -18.8399964233
 C         2.9852418914        3.9756301160      -18.7649048277
 C         2.8732467851        6.4351522082      -18.3152728941
 C         2.9164468228        7.4643256176      -12.1677387982
 C         5.0289966138        6.4484276011      -11.1372195749
 C        -0.0025529903        2.0310445284       -7.3734453229
 C         0.2348953225       -0.0366173324       -8.7752323273
 C        -6.8469405120        3.6066694955      -10.7189377736
 C        -4.9219422525        5.1184698357      -10.5518644671
 C       -10.2107602021        2.8097680717       -5.5302578597
 C        -9.5425750614        0.9808252889       -3.9141163499
 C       -12.8224238145       -3.4078108594       -8.9152899031
 C       -12.7544580751       -1.4678165963       -7.2026685991
 C       -16.1821424797       -7.2642846303       -7.2408798482
 C       -16.3436023236       -7.8343598678       -4.8024558231
 C       -13.4971825775      -14.1508735063       -8.8193002819
 C       -15.6420892573      -15.0959774545       -7.9250202511
 C       -14.3283727234      -15.9720996518       -1.4591191438
 C       -16.7155631246      -16.2499697546       -2.4529989689
 H       -16.7269613251      -12.8396607381       -0.1241277827
 H       -15.1274868926      -13.6217264970       -0.0669426750
 H       -16.5114059487      -14.6841883104       -0.0718386024
 H       -13.0252977199      -16.7352659885       -4.0282691166
 H       -12.6663157326      -15.0981329714       -3.8464542374
 H       -14.0184547987      -16.3198149501       -6.3823458121
 H       -12.3961142083      -15.6681262298       -6.2335051760
 H       -14.5350571816      -11.2772560883       -9.2040094516
 H       -13.6359837007      -11.1888410630       -7.6912756100
 H       -16.6430856669      -10.2686446342       -8.1305590505
 H       -15.1413502591       -9.2307413682       -8.2699003716
 H       -12.9604551582       -6.0420943269       -4.7865968882
 H       -14.6792331320       -5.7278098524       -5.0147754677
 H       -14.2620768043       -5.5734395417       -7.5308563008
 H       -12.4530898730       -5.7671933607       -7.1878159492
 H       -10.4906939904       -1.2634969870       -8.1997896780
 H        -9.0522291799       -2.3068409232       -7.7055630170
 H        -8.7307600431       -1.2080959271       -5.6404257846
 H       -10.3457121444       -1.4431642615       -5.2987688800
 H        -7.8914813126        3.7015646575       -6.8023988905
 H        -8.7028015711        2.6144130796       -7.9218868783
 H        -6.8850359320        1.6929515518       -8.7170294762
 H        -5.9333166626        1.8704792179       -7.2282257533
 H        -2.7281505079        3.8251882796      -10.0754228348
 H        -2.6779207608        2.5606161815      -11.3881578022
 H        -2.2943998214        0.7081919571       -9.9534546400
 H        -2.5595205695        1.6562361389       -8.5870232144
 H         3.0208365738        3.3771747056       -8.2483881333
 H         1.5514006402        3.9592453972       -8.8673785183
 H         3.1564674787        3.0893160353      -11.1927456862
 H         4.2830348530        3.9444344380      -10.0867270848
 H         1.6600510907        5.1620058897      -13.5417620541
 H         2.5458660431        3.7834083805      -14.0748539281
 H         3.8494955669        6.2698200219      -15.0524860921
 H         2.1060764509        6.3833220653      -15.5534238156
 H         5.6528928861        6.5039601283      -16.5692283750
 H         5.6058448869        7.1342542196      -18.2187807040
 H         7.8466255930        6.8098093505      -16.9952464504
 H         7.7408811468        6.2870408541      -18.6736773082
 H        12.0406846486        4.0643925988      -17.2674727415
 H        11.4717614456        2.5049057505      -17.3237635576
 H        11.9926745811        4.0552352831      -14.6811594172
 H        13.2333860228        2.8459923116      -15.3988455166
 H         9.6059384988        2.0363154195      -13.1160160566
 H         9.1011303602        1.4527287468      -11.4973734022
 H         8.7618195893       -0.6831910144      -12.4701544730
 H         9.0782936310       -0.0515643228      -14.1413809289
 H         6.2505266075       -2.0000627810      -15.6782170963
 H         5.5916543004       -0.7635511570      -17.0236869343
 H         4.4519217501       -1.6217630743      -15.9610683054
 H         5.5073973865       -2.1812062178      -13.4732887846
 H         6.2993596028       -1.6942731332      -12.1050211701
 H         7.1972015748       -1.9946608731      -13.5337669773
 H         5.1924445687        0.6321665722      -11.4611411698
 H         4.2360221374       -0.5714250106      -12.3855912396
 H         4.1809987098        0.9482449029      -12.9983512798
 H        14.2874033926        1.2923915155      -13.5504462778
 H        13.3166719434       -0.0578980736      -13.8067761517
 H        13.6471055492        0.3587488025      -12.1594849486
 H        13.0735468873        3.4560575600      -12.8897326779
 H        12.5113806373        2.9320332019      -11.2503404346
 H        11.3426580581        3.5818737422      -12.3390882278
 H         7.8573724088        2.1701968734      -16.6508682869
 H         9.4617580562        1.8867881174      -17.3589199759
 H         7.8746311032        2.0720250523      -18.3618570453
 H        10.2461622267        5.0781536422      -18.7153247141
 H         8.7465607120        4.5868080618      -19.3960229747
 H         9.9667593584        3.3885874301      -19.2953124973
 H         1.9567274886        3.7692096049      -18.6821340535
 H         3.4696084604        3.0908979300      -18.2945424072
 H         3.1025650967        4.1709561382      -19.7613199826
 H         3.0124248545        6.5970269924      -19.3906749453
 H         3.2849821378        7.2512082847      -17.6800177734
 H         1.7409654154        6.4212494851      -18.1347587059
 H         2.4609375200        7.8317574822      -11.2775150903
 H         2.1215208963        7.1536632625      -12.8934908794
 H         3.5830412943        8.1891031091      -12.5672497613
 H         5.6333883141        7.1241408447      -11.7210711003
 H         5.6856205294        5.5157302437      -11.0424096092
 H         4.8601249432        6.9029040093      -10.0813990538
 H        -0.5993242373        2.9159940669       -7.5164690166
 H         1.0308078089        2.2402590780       -6.9044751443
 H        -0.7358274383        1.3422400754       -6.7653076473
 H        -0.7660845444       -0.2690039241       -8.7034956981
 H         0.8469715055       -0.5563079383       -8.0140925562
 H         0.6056629486       -0.5708111424       -9.6243230357
 H        -7.3527104069        2.7141250178      -10.3830074653
 H        -6.7743686587        3.7214890073      -11.8375318534
 H        -7.4883583195        4.4748551542      -10.3479037614
 H        -4.2412676329        4.9946334126      -11.3516411880
 H        -4.4238843099        5.5910264982       -9.7011497506
 H        -5.7258737609        5.7764509301      -10.8915153261
 H       -11.2401064489        2.7885093942       -5.0938981045
 H       -10.3705262458        2.9338181118       -6.5948181216
 H        -9.8048151073        3.6453641900       -5.0816901042
 H        -9.0611359680        1.6684207659       -3.2662784425
 H        -9.1794978012       -0.0087083017       -3.6927416178
 H       -10.5566748759        0.8308785992       -3.4945924480
 H       -12.3254251462       -2.8028470309       -9.6706710209
 H       -13.9163126170       -3.2714164722       -9.0535108968
 H       -12.7155843404       -4.4849765256       -9.1585070893
 H       -13.8288403285       -1.1398287429       -7.3972532741
 H       -12.1909450314       -0.8698321884       -7.9804431852
 H       -12.4323843623       -1.2345385945       -6.1706946066
 H       -15.6175374977       -7.4346933736       -8.1201105451
 H       -16.1075852547       -6.1883157848       -6.8795928306
 H       -17.2847732154       -7.4312733343       -7.3022824254
 H       -15.8195530385       -8.1118021083       -3.8614183230
 H       -17.1314954882       -8.5267643689       -4.7169954520
 H       -16.7368085442       -6.7809011049       -4.7405477838
 H       -12.6467980637      -13.5499226308       -8.4791797407
 H       -13.9407844772      -13.7292965816       -9.7081808481
 H       -13.2037566990      -15.1971152250       -8.7734540797
 H       -16.2892710458      -15.2443444684       -7.0312122095
 H       -15.1534687288      -16.0317807566       -8.2568722609
 H       -16.3897637210      -14.6243929689       -8.7066629921
 H       -13.3185778310      -15.5676691408       -1.5017666381
 H       -14.1580063839      -17.0641586733       -1.5724703054
 H       -14.7339877303      -15.7515779340       -0.5660106859
 H       -17.4618509689      -15.7093518370       -3.0520898121
 H       -17.1068013926      -16.3764791296       -1.4333530818
 H       -16.4892262550      -17.1880726854       -2.8995380284
 Na      -15.5172432411      -12.5656717444       -4.9201040742
 Na        5.6663436421        3.1047440106      -14.7662287019
