232

 C        -5.0150358575        1.2535073687      -14.1206235940
 C        -4.9764036131        2.3086287520      -13.0514272190
 O        -4.1133925986        2.4310306094      -12.1625470682
 C        -6.2848984645        3.2137891842      -12.7668891635
 C        -5.8561171202        4.7405344294      -13.0672994052
 O        -5.2558549164        5.4544255539      -12.3037042306
 C        -6.2161922316        5.2025419686      -14.5159825578
 C        -5.5866523192        6.5515030619      -14.9348980211
 C        -3.9814406155        6.4796076093      -14.6398881599
 O        -3.4860222515        5.3736667780      -14.4219737597
 C        -3.0421051202        7.7908541895      -14.6535108945
 C        -2.3212869606        7.7990384045      -13.2664869065
 O        -2.3254321811        6.9133422985      -12.4557980135
 C        -1.3201780021        8.9442813192      -13.0187450664
 C        -1.3897191580        9.6612575515      -11.6662506460
 C        -2.8610367331       10.0142518889      -11.4268207710
 O        -3.8098328090        9.4977339666      -12.0685502426
 C        -3.1605334895       11.0136140194      -10.3273589678
 C        -2.5118761802       10.5343160438       -8.9108445928
 O        -1.8545584564        9.5273818530       -8.8972824450
 C        -2.7781675077       11.3652851875       -7.7509398684
 C        -2.5571527779       10.5907588631       -6.4895605387
 C        -3.1673092591        9.1458458329       -6.4454619384
 O        -4.0914139890        8.8420803627       -7.1869968774
 C        -2.6842942238        8.0635769845       -5.2515773054
 C        -1.6238890949        7.2583053585       -6.0628771010
 O        -0.4761522286        7.7265509594       -6.0036465657
 C        -2.1606856550        6.2589080453       -7.0810767747
 C        -1.0516493531        5.5122889264       -7.9119339031
 C        -1.6028883019        4.8840888396       -9.1439781963
 O        -2.7634568616        4.9395379956       -9.4693387531
 C        -0.5121378138        4.0218675271       -9.9857505359
 C        -1.1074125893        2.7742398244      -10.8114299269
 O        -1.5996940700        2.9726850766      -11.9127328052
 C        -0.8568693817        1.3873565524      -10.2206176580
 C        -1.8152952061        0.3624487642      -10.8300160216
 C        -2.0996010692       -0.8522235705       -9.8867861334
 O        -1.4754974696       -0.8591151338       -8.8114291194
 C        -3.0797324547       -1.9549765333      -10.1329280351
 C        -2.2049526810       -3.1615054827       -9.9713284492
 O        -1.3144799111       -3.3903407216      -10.7937385548
 C        -2.3370081615       -4.1502658691       -8.7664955334
 C        -0.9970918530       -4.5039853288       -8.2104487712
 C        -0.9333683202       -6.0796842603       -7.9983383827
 O        -1.8793662220       -6.7968945175       -8.2907033125
 C         0.4315440660       -6.7718490093       -7.2710599917
 C         0.9685942244       -7.9481644464       -8.2023139300
 O         0.2356056696       -8.8344405361       -8.4986130596
 C         2.4990408094       -8.0763828330       -8.6867987069
 C         3.1499169718       -9.4351551279       -8.3206373944
 C         3.1344699337       -9.7109701960       -6.7781996317
 O         2.5702107564       -8.9683579870       -6.0157373778
 C         3.6569830339      -11.1852333251       -6.2734659436
 C         2.4268899274      -12.0631508545       -6.5465073802
 O         2.1795356158      -12.4870512325       -7.6716443635
 C         1.3672712568      -12.2496804390       -5.4605013857
 C         0.2078544455      -13.0679020466       -5.9651140338
 C        -0.7208118444      -12.2267776607       -6.8071990635
 O        -1.0160971934      -11.0816990153       -6.4378646529
 C        -1.2653585208      -12.9168891419       -8.0872590588
 C        -2.1431928193      -11.8023997104       -8.8781789256
 O        -1.5143887288      -10.9087420238       -9.4263271075
 C        -3.6164647649      -11.9411283220       -9.2116605583
 C        -4.2560791431      -10.6605837174       -9.6611242344
 C        -4.7550559952       -9.7046835145       -8.5827995275
 O        -3.9755994437       -9.1321830110       -7.7620992402
 C        -6.2540842429       -9.3219280331       -8.4682475169
 C        -6.6827009354       -8.7887418570       -9.9930826699
 O        -6.8243378998       -9.6569964225      -10.8532790970
 C        -6.8084623520       -7.3414138530      -10.4767315035
 C        -7.2816233511       -7.2944543104      -11.9757973604
 C        -6.1140581526       -6.9257090330      -12.8912144379
 O        -5.0547481340       -6.6433325942      -12.3435087831
 C        -6.4507130776       -6.8822485224      -14.4286958882
 C        -6.7791190673       -5.3419431061      -14.7564229778
 O        -5.9698011324       -4.4120951015      -14.7257787762
 C        -8.2138020044       -4.9806606861      -15.1990121080
 C        -8.6986721667       -3.5706439358      -14.8172603323
 C        -8.6626930834       -3.3659567626      -13.2099349182
 O        -7.8629861188       -3.9112474495      -12.4625619200
 C        -9.7465458562       -2.4966314605      -12.6632302471
 C        -9.0148681264       -1.2151768663      -12.1972241312
 O        -8.7386533227       -0.2780039984      -12.9737362735
 C        -8.5566784781       -0.9361838409      -10.7367212541
 C       -10.8153929477       -2.1037025529      -13.7597713837
 C       -10.5208961692       -3.2371713797      -11.5374958787
 C        -5.2422149330       -7.2737181891      -15.2391238314
 C        -7.6373946136       -7.7505472639      -14.8662105547
 C        -7.1224153454      -10.5767187942       -8.1890749973
 C        -6.3767757216       -8.2006132599       -7.4084447159
 C        -0.1325144587      -13.2573229878       -9.1145451365
 C        -2.0294012281      -14.2594089941       -7.5450766089
 C         4.8704562262      -11.6385060301       -7.0294406607
 C         4.0047549653      -11.2663914016       -4.7532197735
 C         1.4599347140       -5.6580254479       -6.9591730635
 C         0.0696428410       -7.4504050272       -5.8946491745
 C        -4.1872602673       -2.0654977475       -9.1099406925
 C        -3.5463460690       -1.9066623646      -11.5663087360
 C         0.0212032895        5.0403087525      -11.0118589670
 C         0.7151853371        3.5137147285       -9.2039283125
 C        -2.1176554617        8.9857581128       -4.0769857345
 C        -3.8972974585        7.2974447204       -4.6203319904
 C        -2.5604761819       12.4031556861      -10.5743485334
 C        -4.6336748467       11.0020161813      -10.1018257822
 C        -1.8945629829        7.5130292539      -15.6559009977
 C        -3.7796285604        9.0243226240      -14.9300384691
 C        -7.5624605172        2.7560438143      -13.6041151238
 C        -6.4588238865        3.2257692000      -11.2469782759
 H        -5.7221496478        0.4708676821      -13.8703441049
 H        -4.0651904912        0.7983678293      -14.1907130681
 H        -5.1860285570        1.5937613463      -15.1486299609
 H        -7.2884691701        5.0527732962      -14.7640397284
 H        -5.7467577841        4.4132086365      -15.1203982715
 H        -6.1030650693        7.3577648617      -14.3705079488
 H        -5.7685015449        6.6302263055      -15.9974165153
 H        -1.3020851308        9.7841048972      -13.7341136007
 H        -0.2456200746        8.4947611930      -13.1100175041
 H        -0.8803975772       10.6161732735      -11.5505204516
 H        -1.1208129243        9.2111839506      -10.7408865071
 H        -3.7977805569       11.9139538144       -7.6886360807
 H        -2.1626718936       12.2712497856       -7.6185586217
 H        -2.9541172333       11.2701217784       -5.6430757938
 H        -1.4870219448       10.4929448141       -6.3157196696
 H        -2.8606251386        6.7679685439       -7.7948219940
 H        -2.7826008029        5.5439190408       -6.5031664260
 H        -0.5141634548        4.7697292359       -7.3700612997
 H        -0.2695564772        6.2826990637       -8.1848494633
 H        -0.8839183992        1.3816004419       -9.0689340374
 H         0.1732866697        1.0722680154      -10.5124638451
 H        -1.4019662366       -0.0175257922      -11.7076205971
 H        -2.6845720442        0.9129674496      -11.1788648780
 H        -2.7993211894       -5.0055286073       -9.1168388277
 H        -2.9624596807       -3.6855920411       -7.8860963528
 H        -0.7615397986       -3.9308589665       -7.2685737578
 H        -0.2205757796       -4.3323096561       -8.9314565237
 H         3.1854623159       -7.4038073595       -8.1824532128
 H         2.4575619974       -7.8028528178       -9.7354564496
 H         4.1735373797       -9.3367316276       -8.7461876123
 H         2.4589969403      -10.1482067817       -8.8151705664
 H         1.2531346006      -11.1485611524       -5.0061249234
 H         1.7926417984      -12.7037474712       -4.5571273900
 H        -0.3851156086      -13.4746481165       -5.1097206763
 H         0.5897759358      -13.9735671825       -6.4760181679
 H        -4.3067892868      -12.2823723265       -8.3204395852
 H        -3.6878924065      -12.7209185641       -9.9444571861
 H        -5.0715268336      -10.9183701860      -10.3951048215
 H        -3.6180740202      -10.0420858904      -10.2407840967
 H        -5.7606717513       -6.9518558443      -10.3135358899
 H        -7.4326733141       -6.8960318134       -9.6836723041
 H        -8.0586651129       -6.6236506445      -12.2099554627
 H        -7.6398446686       -8.2642931607      -12.1141973724
 H        -9.0312384118       -5.6206289219      -14.7964950793
 H        -8.2670034855       -4.9876282124      -16.3448868441
 H        -9.7411696113       -3.4907644346      -15.1985082910
 H        -8.0351364461       -2.7990521545      -15.1943055368
 H        -9.3360933205       -0.5252359395      -10.1060615895
 H        -7.7534263168       -0.2396552044      -10.6571862150
 H        -8.2995238728       -1.8546843024      -10.2085887345
 H       -11.1631809772       -3.0128969258      -14.2806134873
 H       -10.4239177985       -1.3931178977      -14.4694464275
 H       -11.5547733607       -1.5649203518      -13.2779891821
 H       -10.3830502672       -4.3604368122      -11.7447039716
 H       -11.5527574774       -2.9511069890      -11.7647976315
 H       -10.1744656567       -3.1827448520      -10.5230334233
 H        -5.5609628427       -7.3868621372      -16.3602732705
 H        -4.8919066494       -8.3014105741      -15.0350135449
 H        -4.3179996558       -6.5982466842      -15.1192653228
 H        -7.9556711270       -7.3984784934      -15.8854328304
 H        -8.4570439134       -7.6837362750      -14.2446427175
 H        -7.2625330748       -8.7848100016      -15.0591006138
 H        -8.1523058545      -10.4672126119       -8.5744676479
 H        -7.1978614022      -10.8415795182       -7.1743472673
 H        -6.7885688611      -11.4752751770       -8.7089758620
 H        -7.3656047795       -7.9194973006       -6.9981636195
 H        -5.8881135172       -7.2845744500       -7.7563065377
 H        -5.7343946752       -8.5535779942       -6.6571063618
 H         0.7076645989      -13.5454952766       -8.4906710057
 H         0.2877844522      -12.4521405798       -9.7903229415
 H        -0.4879444360      -13.9995545656       -9.7570568804
 H        -1.2357520978      -14.7784586018       -6.9782050614
 H        -2.5127438075      -14.8275383934       -8.3707671884
 H        -2.8637221030      -14.0747825791       -6.9114029881
 H         4.5127645215      -12.1357775524       -7.9677961075
 H         5.2280238100      -12.5147243923       -6.4825875875
 H         5.6322188927      -10.7930967927       -7.1243238004
 H         3.2838415190      -10.6061869438       -4.2387022389
 H         4.9992382940      -10.8180970543       -4.6437159037
 H         3.8754753722      -12.2727778613       -4.3155126963
 H         2.3135561434       -6.0191023831       -6.4047900036
 H         1.0111397544       -4.7890378309       -6.4474992834
 H         1.9015928640       -5.3390300069       -7.8753769238
 H         1.0685742701       -7.4587868851       -5.4373040991
 H        -0.4496119228       -8.3713106595       -5.8738172934
 H        -0.4505370833       -6.7267912751       -5.2562099308
 H        -4.9160396013       -1.3145296157       -9.3484989903
 H        -3.8323408354       -1.7702622184       -8.0444519069
 H        -4.7246346034       -2.9783655519       -8.9652686414
 H        -2.8656241600       -2.6814146538      -12.0234013107
 H        -3.5998211146       -0.9062472612      -11.9214340465
 H        -4.4991397092       -2.2727221889      -11.8012898395
 H         0.3401951322        5.9553596457      -10.5271649249
 H        -0.8786011385        5.2101131420      -11.6532482766
 H         0.8917459797        4.7154467946      -11.5842610008
 H         1.4213258453        3.0352836417       -9.8878532078
 H         0.4270156712        2.7632227951       -8.3887558997
 H         1.3363852280        4.2766170544       -8.7571207630
 H        -1.0911316804        9.3529698651       -4.2182657351
 H        -2.1975091629        8.5418846418       -3.0307857147
 H        -2.7939740271        9.8466795951       -3.9979462031
 H        -4.2003222950        6.4745425419       -5.1955398028
 H        -4.7386436667        7.9271650078       -4.5373496891
 H        -3.4882669452        6.8836823595       -3.7306559338
 H        -2.6186919462       13.0881149984       -9.7135957323
 H        -3.0398852422       12.9203699844      -11.3806566215
 H        -1.5110863128       12.3375720438      -10.8859902325
 H        -5.0963173387       10.0136471497       -9.8489099287
 H        -5.1461043568       11.3962989966      -11.0028895456
 H        -4.8104449791       11.7427021456       -9.3124138307
 H        -1.5559130235        6.5249960123      -15.6110237053
 H        -1.0447832252        8.1169884711      -15.5099338721
 H        -2.1554945236        7.6301481456      -16.6389717716
 H        -4.6760685667        9.0051896051      -14.3221889875
 H        -4.0747158543        9.0144286714      -15.9478266197
 H        -3.2500006871       10.0121949525      -14.7226155119
 H        -7.1372680942        2.4744315794      -14.5602173390
 H        -8.1895758833        3.6080355246      -13.8088636622
 H        -8.0889959936        1.9573756316      -13.1214805032
 H        -5.5735709029        3.6578954641      -10.6720762579
 H        -6.7038396345        2.2635472622      -10.8401581430
 H        -7.1378541693        3.9334746901      -10.8785124554
 Na       -3.2228642801        4.8395509933      -11.6981787358
 Na       -1.6920420628       -9.3939832038       -7.9150999355
