232

 C        -4.9407695785        1.2801130299      -14.0299061698
 C        -5.0795398691        2.2616935755      -12.8950291686
 O        -4.1151854596        2.3476925328      -12.1800458377
 C        -6.3828187140        3.2683829662      -12.7166846792
 C        -5.8950109502        4.6379442445      -13.1163323798
 O        -5.2659402801        5.3978868657      -12.3356335068
 C        -6.1611640745        5.2077782003      -14.5018574069
 C        -5.3659412394        6.5451052757      -14.6910508942
 C        -3.8613456199        6.3522987286      -14.5770852364
 O        -3.3559601532        5.2349350983      -14.4894952318
 C        -3.0855422308        7.6523076607      -14.6480915867
 C        -2.3338724446        7.6965137968      -13.2591206346
 O        -2.4978447083        6.7744686967      -12.4407358546
 C        -1.2227364782        8.7517763621      -13.0791326726
 C        -1.4284159883        9.7042659053      -11.8419306466
 C        -2.9230131770       10.0758161632      -11.5579879135
 O        -3.7890920576        9.4976774853      -12.1604471167
 C        -3.1955579361       11.0925476643      -10.4164633416
 C        -2.4760620799       10.4833797510       -8.9757757369
 O        -1.7419963722        9.5175159764       -9.0135375017
 C        -2.5925091308       11.3582600086       -7.7995797197
 C        -2.4640384551       10.5685545572       -6.4463325653
 C        -3.2952748995        9.2835631569       -6.2924235245
 O        -4.1627564185        8.9508926356       -7.0804829401
 C        -2.7536209675        8.2853720758       -5.2244409547
 C        -1.6532096594        7.5067443767       -6.1002391862
 O        -0.4747265024        7.7219460826       -6.0003557692
 C        -2.0961804579        6.3014812187       -7.0553826896
 C        -1.0175308686        5.6036961753       -7.9174656217
 C        -1.5956475852        4.8440997048       -9.0899437588
 O        -2.6847806348        5.1327756442       -9.5562076176
 C        -0.5331839554        4.0268971013       -9.9604910775
 C        -1.1263658106        2.7896155970      -10.7143704356
 O        -1.6216710083        3.0147790368      -11.8080135745
 C        -0.9269154827        1.4144677782      -10.2043897196
 C        -1.8428512524        0.3292192747      -10.8708404685
 C        -2.1248916398       -0.7946360822       -9.7465754058
 O        -1.4859784336       -0.7813813218       -8.7137042129
 C        -3.1572567588       -1.9414046186      -10.1109819042
 C        -2.1706519535       -3.2607773450       -9.9113042824
 O        -1.3154488244       -3.3977600909      -10.7278679428
 C        -2.3310479010       -4.2530847943       -8.7557129047
 C        -0.9406039893       -4.6649829545       -8.1465487230
 C        -0.7938241004       -6.1534428372       -7.9512108422
 O        -1.6830060763       -6.8794418395       -8.2900277054
 C         0.5108643844       -6.6420807037       -7.3498600684
 C         1.0655045539       -7.8989441229       -8.1741145844
 O         0.3183087155       -8.8255772553       -8.5554935998
 C         2.5291703878       -8.1207079259       -8.5786862079
 C         3.1472195894       -9.4739966815       -8.2350748074
 C         2.9996505815       -9.8366292761       -6.7880504103
 O         2.6413976242       -8.9293893579       -6.0440319643
 C         3.5497644377      -11.2337452201       -6.2977937040
 C         2.2471359014      -12.0377860993       -6.5444451535
 O         1.9789769137      -12.5153864593       -7.6736857330
 C         1.2992070245      -12.2152366611       -5.3554127840
 C         0.1466815517      -13.0886022717       -5.8859070051
 C        -0.7556125573      -12.2321354195       -6.8392880632
 O        -1.0433319109      -11.0990795582       -6.4887395721
 C        -1.2636097685      -12.9861124483       -8.1071772196
 C        -2.0912748447      -11.9495748664       -8.9796218855
 O        -1.4989473880      -11.0538346529       -9.5744260315
 C        -3.5901633452      -12.0828494475       -9.1215547277
 C        -4.2202766381      -10.7853490676       -9.5695626617
 C        -4.5802421553       -9.6618668610       -8.5031759404
 O        -3.8020962419       -9.1987297568       -7.7079074402
 C        -6.0485480014       -9.2226083993       -8.5702118428
 C        -6.5453532720       -8.9307404739      -10.1520096308
 O        -6.7800423434       -9.9411837611      -10.7679254252
 C        -6.8909969335       -7.5199693631      -10.5315459684
 C        -7.3312646604       -7.3669673191      -11.9084491456
 C        -6.1957881924       -6.8643999281      -12.8646209088
 O        -5.0581006444       -6.6481591385      -12.4674775786
 C        -6.5657274816       -6.8104233878      -14.3870591382
 C        -6.7854897974       -5.3894037670      -14.7100322891
 O        -5.8371431960       -4.6322714566      -14.7250967193
 C        -8.2287649418       -5.0222695945      -15.2049187676
 C        -8.6455697037       -3.5744642567      -14.8059846174
 C        -8.7271074249       -3.3316392364      -13.2502812797
 O        -7.8458078048       -3.8462928218      -12.5703375606
 C        -9.8708087250       -2.3714417706      -12.6784222300
 C        -9.0375368005       -1.0261713432      -12.1846998029
 O        -8.7661904159       -0.2071528403      -13.0629086456
 C        -8.5117209063       -0.7711774748      -10.7572077888
 C       -10.9089535440       -1.9222661087      -13.7500847752
 C       -10.5088226219       -3.2174996545      -11.5187496549
 C        -5.2474678991       -7.2137711159      -15.1131910096
 C        -7.7117603342       -7.8375269301      -14.7606068284
 C        -6.9341650663      -10.5152725646       -8.2492136027
 C        -6.4128603069       -8.1449300903       -7.5607443976
 C        -0.1930639848      -13.4578757824       -8.9893933417
 C        -2.1364947148      -14.1040699127       -7.7468973825
 C         4.7239079706      -11.6525863412       -7.2352581187
 C         3.9070444386      -11.1607779201       -4.8054091019
 C         1.4543693829       -5.4988511652       -7.0664805415
 C         0.0696746806       -7.2384931491       -5.9760604946
 C        -4.3016862398       -2.0180029812       -8.9532068976
 C        -3.7791928509       -1.9079454680      -11.5908463648
 C         0.1802013855        5.1091225771      -10.9724644756
 C         0.6467882201        3.5581561219       -9.0604142631
 C        -1.9905883936        8.9538537139       -4.1380184986
 C        -3.8010476073        7.2409233623       -4.6017347508
 C        -2.5486131764       12.4758264992      -10.6241302706
 C        -4.7566663065       11.1896968440      -10.2150403123
 C        -1.9575805889        7.4167966940      -15.7411974032
 C        -3.8891958731        8.9040109013      -14.9605057565
 C        -7.4753280410        2.7363410382      -13.5646345070
 C        -6.6549860556        3.2981858283      -11.1648513801
 H        -5.8409461036        0.7239050765      -14.1751661947
 H        -4.1037536411        0.6026485110      -13.9872124123
 H        -4.7291669860        1.8490681065      -14.9626842425
 H        -7.2304103642        5.4128560917      -14.5277824483
 H        -6.0250070508        4.4202775784      -15.2879017631
 H        -5.7549020190        7.2485280508      -13.8971632793
 H        -5.5851388412        6.9369584723      -15.6798276568
 H        -1.0192172518        9.3911964066      -13.9589081934
 H        -0.2187660276        8.2740609768      -12.8177242417
 H        -0.7953532734       10.5750262067      -11.6957726755
 H        -1.2709247951        9.2584779594      -10.8629613960
 H        -3.5387138442       11.9806338945       -7.8832338492
 H        -1.8910759169       12.1517272372       -7.6634101159
 H        -2.6179373123       11.2997825364       -5.6363454033
 H        -1.3222154645       10.2603203232       -6.4211218101
 H        -2.8283880306        6.7383891915       -7.7776589306
 H        -2.6540019971        5.5149708715       -6.4810309717
 H        -0.4713197043        4.8995117324       -7.3328204450
 H        -0.2599484564        6.3591459342       -8.2399977159
 H        -1.2553402525        1.4809180287       -9.0719678822
 H         0.1128771069        1.1234693860      -10.2442347506
 H        -1.4196071353       -0.2166772388      -11.7423689151
 H        -2.6931646430        0.8904681911      -11.3072855070
 H        -2.8663313535       -5.0753821157       -9.1544420142
 H        -2.9334924128       -3.8546948666       -7.9911186397
 H        -0.8131744783       -4.1459952668       -7.1260092340
 H        -0.1527214499       -4.3792545547       -8.7774925378
 H         3.2342557353       -7.3734392503       -8.1566632627
 H         2.4933302548       -8.0271239785       -9.6680070298
 H         4.1525022126       -9.2278895646       -8.4846992665
 H         2.6520410103      -10.1907448295       -8.8821947853
 H         1.0095035913      -11.0991436487       -5.1161328033
 H         1.7906241720      -12.4062747514       -4.3829252482
 H        -0.5189155353      -13.5362724331       -5.0897804609
 H         0.5112262572      -13.9566076026       -6.4091202863
 H        -4.0740945722      -12.4503573819       -8.2280688736
 H        -3.7670640255      -12.8756545285       -9.9113490174
 H        -4.9204091448      -10.9572906629      -10.3277937457
 H        -3.4313552365      -10.2379416119      -10.0641783885
 H        -5.9256698020       -6.9723830227      -10.2410802925
 H        -7.6243345479       -7.2799615699       -9.6900519720
 H        -8.2049526781       -6.7023049800      -12.0087510700
 H        -7.7042513950       -8.3777354755      -12.1050684863
 H        -8.9699884527       -5.6809892390      -14.8477763805
 H        -8.2188511884       -5.0464828139      -16.2323028048
 H        -9.5854378424       -3.3393452663      -15.2859765631
 H        -7.7842099339       -2.8673973411      -15.0849858957
 H        -9.0381522798       -0.0264162746      -10.1354369586
 H        -7.4483152914       -0.4746990037      -10.6633803589
 H        -8.6529867061       -1.6629606209      -10.2409186990
 H       -11.2545515197       -2.8150123850      -14.3529413320
 H       -10.5690950460       -1.1199055460      -14.3775424892
 H       -11.7090076032       -1.4585283229      -13.2126835924
 H       -10.5463329710       -4.2780390966      -11.8039985400
 H       -11.5200174985       -2.8135871953      -11.1681370794
 H        -9.7625487063       -3.3606662987      -10.7972416752
 H        -5.4675092012       -7.3405450863      -16.1575617489
 H        -4.8534288034       -8.2616994206      -14.8645486846
 H        -4.4442881530       -6.5001285449      -14.9721379934
 H        -8.0993261276       -7.5665163005      -15.6917387431
 H        -8.5659040552       -7.9092916178      -14.0333457987
 H        -7.1896331506       -8.7820788766      -14.9674621137
 H        -7.9455298043      -10.4157762472       -8.5717644686
 H        -6.9467232390      -10.8010368902       -7.2143578188
 H        -6.5830525230      -11.3694376515       -8.7985550043
 H        -7.4617389650       -8.2433886620       -7.1991930843
 H        -6.2627767348       -7.0950771078       -7.8644700741
 H        -5.7541530721       -8.3727281469       -6.7274529729
 H         0.5601413430      -13.9353164510       -8.3607216138
 H         0.3327730364      -12.6439596003       -9.4939694725
 H        -0.6145954009      -14.0544316671       -9.8235777218
 H        -1.5002093111      -14.7996790271       -7.1500234001
 H        -2.5017061754      -14.5777045623       -8.6192274832
 H        -3.0026989474      -13.7778096284       -7.1801407880
 H         4.2490915848      -12.1438584499       -8.1322081256
 H         5.2494051898      -12.5222729551       -6.7973886601
 H         5.3849649940      -10.7748249974       -7.3802955898
 H         3.1329331029      -10.6010777989       -4.3313413648
 H         4.9231708320      -10.7336853791       -4.5785883890
 H         3.7480165707      -12.1970451109       -4.4270980304
 H         2.3001832413       -5.8912982650       -6.5360679830
 H         0.9894185034       -4.7117901982       -6.4714143902
 H         1.8761951065       -5.0806828839       -7.9756468251
 H         0.9455448075       -7.6849124156       -5.5131641273
 H        -0.7737871185       -7.8764598844       -6.0848519546
 H        -0.2197600054       -6.3633359246       -5.2462391232
 H        -4.9572722321       -1.1695541075       -8.8223931923
 H        -3.8230700675       -2.1072923424       -7.9899901225
 H        -4.9819580455       -2.8508038996       -8.9989752677
 H        -3.2173926364       -2.5297601535      -12.1643982684
 H        -3.9803340616       -0.9507569725      -11.9060319277
 H        -4.7582678620       -2.4496329853      -11.6517586464
 H         0.7346188105        5.9313698918      -10.4541213302
 H        -0.5316601225        5.4576606318      -11.7144248082
 H         0.9696281265        4.5726264071      -11.5113060215
 H         1.5471263024        3.1890289230       -9.6509646889
 H         0.3906201521        2.7493200254       -8.3636818960
 H         1.1131772515        4.3515842462       -8.4471603543
 H        -1.0491801832        9.4004777219       -4.4952648311
 H        -1.6006687102        8.1759914990       -3.4499700024
 H        -2.5719089376        9.6916892979       -3.4738842078
 H        -3.7522729859        6.2723661081       -5.0349336097
 H        -4.7920693122        7.6086958673       -4.6365265095
 H        -3.3808842737        6.9364003969       -3.6253705658
 H        -2.2685414862       13.1030139713       -9.7412311944
 H        -3.3033471903       13.0625025290      -11.1114292629
 H        -1.7772832496       12.5324359217      -11.3514338570
 H        -5.1970336457       10.2346998659       -9.9161461602
 H        -5.3573545112       11.5463774664      -11.0654521287
 H        -4.8338723902       11.9233983994       -9.4286409823
 H        -1.5454979739        6.4029309772      -15.8792387823
 H        -1.1595326598        8.0753299818      -15.6308178787
 H        -2.3457665247        7.5856891129      -16.7522862340
 H        -4.5974840997        9.1022628388      -14.1972987755
 H        -4.4220373581        8.7675436273      -15.8945138211
 H        -3.2241339641        9.8171489944      -15.1050512115
 H        -7.2327385464        2.7774907098      -14.6288091659
 H        -8.3598064047        3.3860819259      -13.4177936602
 H        -7.6830149237        1.7709886265      -13.1419566134
 H        -5.7464869901        3.4591570233      -10.5826053243
 H        -7.1557648952        2.4684882488      -10.7932601441
 H        -7.2166205613        4.1415835521      -10.7940725080
 Na       -3.2333401517        4.8302935322      -11.7551017218
 Na       -1.6379014639       -9.1799896035       -7.8801202974
