232

 C        -4.9551952281        1.3634809922      -13.8699501125
 C        -5.4018314179        2.2260008050      -12.7767766533
 O        -4.5681276878        2.3428836580      -11.8134029556
 C        -6.6242486923        3.0990706886      -12.5560569673
 C        -6.0738695526        4.5799863412      -12.8963109892
 O        -5.5194522375        5.2056079625      -12.0149422641
 C        -6.1793128608        5.0667091733      -14.4232575488
 C        -5.4228093983        6.3461801482      -14.8084265385
 C        -3.9095273736        6.1171823627      -14.6167271985
 O        -3.5101813346        4.9333774529      -14.5472640392
 C        -2.8928222733        7.3242339934      -14.7930405103
 C        -2.2411631834        7.6605764807      -13.4340782520
 O        -2.3901990074        6.9624255890      -12.4385440648
 C        -1.2423415705        8.8979516733      -13.4158306029
 C        -1.3594522150        9.7535956304      -12.0493901049
 C        -2.8318835023       10.1498617033      -11.7589596891
 O        -3.7687496369        9.5510619239      -12.2552005097
 C        -3.0682999041       11.1577238954      -10.5561659126
 C        -2.3801298834       10.6019256607       -9.1674806462
 O        -1.7929127908        9.5363869361       -9.1454163000
 C        -2.7016315762       11.3430965745       -7.9363440084
 C        -2.1207517143       10.6520627234       -6.7228828589
 C        -3.1086811020        9.5383958408       -6.1041006000
 O        -4.2695941368        9.5103646563       -6.4366559104
 C        -2.5632303949        8.3002566392       -5.1801867449
 C        -1.6123682092        7.4566316281       -6.1588576538
 O        -0.4297067716        7.7502587312       -6.1281937436
 C        -2.1757587389        6.5169190900       -7.3025030468
 C        -1.0007128566        5.7098582585       -7.9301427520
 C        -1.4240472684        5.0623758194       -9.1812547833
 O        -2.4622969320        5.3007076352       -9.7606164009
 C        -0.2843533405        4.0134166683       -9.7457790144
 C        -0.9611179647        2.8952819043      -10.4793243478
 O        -1.4977416793        3.1145715658      -11.5660090331
 C        -1.0145480055        1.5626605334       -9.7893302214
 C        -1.9953459125        0.5141840845      -10.4649298627
 C        -2.3692727210       -0.6883584000       -9.5519515599
 O        -1.7943589334       -0.5960397220       -8.4719505128
 C        -3.2366535624       -1.9143541652       -9.8716734112
 C        -2.3427143524       -3.1226563275       -9.8804927697
 O        -1.5010008478       -3.2612520265      -10.7392233617
 C        -2.3335147680       -4.2855883272       -8.8557688907
 C        -0.9524538076       -4.5881657252       -8.3536324136
 C        -0.6427480284       -6.0853450360       -8.1056926452
 O        -1.4610539141       -6.9126612974       -8.4610874785
 C         0.7211331312       -6.4689601168       -7.3846057566
 C         1.3587163906       -7.7951771715       -8.1403066284
 O         0.5905347397       -8.6736402059       -8.4907709862
 C         2.8276813474       -7.8720712863       -8.4392421726
 C         3.3710511658       -9.3156790481       -8.2838078627
 C         3.0651880162       -9.6867696874       -6.8284329108
 O         2.6974575618       -8.8469889498       -6.0127573919
 C         3.3843538174      -11.1984764336       -6.2970176924
 C         2.0639952453      -12.0036724669       -6.3729146826
 O         1.7158307951      -12.4012801151       -7.5028796559
 C         1.1607918283      -12.3973006539       -5.2124660002
 C        -0.1197044456      -13.1003694287       -5.7835636292
 C        -0.7963193888      -12.4355821348       -7.0217561705
 O        -1.0313178608      -11.2378846371       -6.9790820890
 C        -1.4057874648      -13.3627980650       -8.1960708390
 C        -2.0081022980      -12.1817985279       -9.0465280875
 O        -1.2377486783      -11.4562481720       -9.6614794175
 C        -3.4990712001      -11.9373922432       -8.9704119398
 C        -4.0167822970      -10.6536562228       -9.7877796194
 C        -4.7210653033       -9.7360075860       -8.7311183164
 O        -3.9676991275       -9.3251012850       -7.8067221159
 C        -6.1419431625       -9.3609899554       -8.6221715949
 C        -6.7901863885       -9.1141292252      -10.1076802027
 O        -6.5725910356      -10.0123059133      -10.9348837697
 C        -7.1020090871       -7.7090925007      -10.4610854708
 C        -7.5379621803       -7.5632493499      -11.9849935265
 C        -6.4031001098       -6.9885289989      -12.8219080550
 O        -5.3201414901       -6.7041635610      -12.3350074217
 C        -6.5528773476       -6.8977375441      -14.3710711664
 C        -6.8460777532       -5.4584568387      -14.7947611448
 O        -5.9532154001       -4.6440450213      -14.7955459378
 C        -8.3204118724       -4.9603284703      -15.0967010477
 C        -8.4668201663       -3.4330458677      -14.8403874825
 C        -8.7982350450       -3.1482738419      -13.2802497159
 O        -8.0526235259       -3.7436917664      -12.5121987742
 C        -9.8976188663       -2.1088578946      -12.6636234306
 C        -9.1226716983       -0.7995137079      -12.3200447946
 O        -8.7832435249       -0.0323150159      -13.2589120187
 C        -8.4763195413       -0.6531567120      -11.0336727004
 C       -10.9998863994       -1.7824870296      -13.6861017338
 C       -10.4520106595       -2.8594982781      -11.4624983585
 C        -5.2949727200       -7.4462887235      -15.0944778738
 C        -7.6974168134       -7.9160989384      -14.9610654575
 C        -6.7479831869      -10.6194221406       -7.7723737468
 C        -6.1606094925       -8.2188215701       -7.6058296088
 C        -0.3849938448      -14.1127730307       -9.0412323785
 C        -2.4392465397      -14.3188969719       -7.5593674051
 C         4.3984263411      -11.9166985771       -7.2267228788
 C         4.0434033450      -11.1569634739       -4.9010624919
 C         1.7452459040       -5.1986892055       -7.2191200726
 C         0.4344262213       -6.9648811705       -5.9417765400
 C        -4.1739290622       -1.9420886902       -8.6905123730
 C        -3.8012687535       -1.8997190545      -11.3454721611
 C         0.4989040811        4.8684995253      -10.8309105924
 C         0.7402918826        3.5604782639       -8.7425541731
 C        -1.8016975668        8.8706594898       -3.9984436797
 C        -3.8497006170        7.5913486997       -4.6661549763
 C        -2.3832123958       12.5222783013      -11.0461147267
 C        -4.6277968457       11.1718907445      -10.2622894332
 C        -1.8379214529        7.0291734777      -15.8248903810
 C        -3.6886062989        8.6626478197      -15.1430657992
 C        -7.6934411540        2.7256451765      -13.5342720360
 C        -7.0410940746        3.0562357886      -11.0493460213
 H        -5.6826727784        1.0946892563      -14.6242387649
 H        -4.4705580887        0.4808524580      -13.4946536051
 H        -4.0561354043        1.8347744706      -14.3351725805
 H        -7.2398286692        5.1906066422      -14.7070775124
 H        -5.7758724903        4.2207856060      -14.9797877063
 H        -5.6864772385        7.1315837063      -14.0748732110
 H        -5.7098537192        6.6649731969      -15.7882444807
 H        -1.4813203651        9.5774257232      -14.2002300655
 H        -0.1448173365        8.6407244788      -13.3628839534
 H        -0.7298586138       10.6579849165      -12.0157647609
 H        -1.1279336088        9.2975742206      -11.0984706870
 H        -3.8599707067       11.2807460998       -7.8785712095
 H        -2.5417397482       12.4189403550       -8.0058974518
 H        -1.7306857785       11.3228479488       -5.9660291668
 H        -1.3626137100       10.0560136661       -7.2083431398
 H        -2.6573241728        7.2435626242       -7.9773759004
 H        -2.9701849564        5.8644113258       -6.9758678083
 H        -0.6269521730        5.0575081730       -7.1863459446
 H        -0.1467228378        6.4065765837       -8.1964420168
 H        -1.4125470152        1.9123051813       -8.8075552210
 H        -0.0951370071        1.0268908025       -9.7976807778
 H        -1.4269519601        0.0846929620      -11.2217405122
 H        -2.8030170909        0.9838428254      -11.0105798321
 H        -2.8493102775       -5.1573059163       -9.2556016764
 H        -3.0140946297       -3.9994328362       -7.9535936564
 H        -0.7025488848       -3.9688728354       -7.4225480333
 H        -0.3316123361       -4.3345701098       -9.2055350039
 H         3.2717378885       -7.1512670390       -7.7574528427
 H         3.0217192912       -7.6863860553       -9.4916367236
 H         4.4307049810       -9.0885547587       -8.4891426296
 H         2.8446307184       -9.9076207661       -9.0786400792
 H         0.8135137198      -11.3632636667       -4.6945993520
 H         1.7131233937      -12.8846548557       -4.4305598439
 H        -0.8167858791      -13.0685226098       -4.9246047724
 H        -0.0410112848      -14.1433072258       -6.0403045107
 H        -3.7359695280      -11.7838184872       -7.8514561421
 H        -4.0329915057      -12.7673212297       -9.3762442916
 H        -4.5408868340      -11.0155681181      -10.7323046058
 H        -3.0907020858      -10.1649140751      -10.1518196716
 H        -6.1542739939       -7.2138854359      -10.3455557329
 H        -7.8063871035       -7.3009033850       -9.7859297333
 H        -8.4364459534       -6.9865996489      -11.9556689432
 H        -7.7714485477       -8.4852771922      -12.4297882612
 H        -9.0818149651       -5.5370244181      -14.4363888319
 H        -8.6645871365       -5.1138270602      -16.1975908965
 H        -9.1768635721       -2.9856519106      -15.5235588506
 H        -7.4480024289       -3.0824851761      -14.9826735045
 H        -7.8288257623        0.2518087881      -11.0694071052
 H        -7.7389833529       -1.4470957273      -10.8611129613
 H        -9.1325707340       -0.5785767624      -10.1992835083
 H       -11.7091219823       -2.6487948277      -13.8583075449
 H       -10.5193240382       -1.4442408607      -14.5961918115
 H       -11.5981369820       -0.9928273838      -13.3665456940
 H       -11.3381713213       -3.4960009283      -11.7682103192
 H       -10.8594806661       -2.0987873420      -10.7320289020
 H        -9.7303111233       -3.4697423184      -11.0220848422
 H        -5.3634779529       -7.3330421464      -16.1806450650
 H        -5.2413432450       -8.5620785142      -14.9527023265
 H        -4.3693023605       -6.9755855224      -14.7512918763
 H        -7.3683600733       -8.1357730666      -15.9769138126
 H        -8.6730634720       -7.5066256464      -14.9117787437
 H        -7.6985729389       -8.8746235082      -14.3836554087
 H        -7.7394330645      -10.2275582079       -7.4007474218
 H        -6.1536599849      -10.9759415997       -6.9325614745
 H        -6.9955185877      -11.4841960558       -8.4378998763
 H        -7.1089430949       -7.6651252959       -7.7655260951
 H        -5.3514053215       -7.5352404936       -7.8095291946
 H        -6.2187349597       -8.5470910630       -6.6303662683
 H        -0.1212268700      -15.0729339970       -8.6194192607
 H         0.5238836984      -13.5123877344       -9.2122440034
 H        -0.7705169700      -14.2248344137      -10.0251127516
 H        -2.0330773891      -15.2083528817       -6.9666561755
 H        -2.9758258079      -14.8608201521       -8.3481722395
 H        -3.0548532198      -13.6076039565       -6.9949240703
 H         4.0739353789      -11.9116940085       -8.2545804149
 H         4.4739918901      -12.9218061746       -6.9413401442
 H         5.3530713721      -11.5196087180       -6.9468358198
 H         3.3287927665      -10.8980441729       -4.1708990423
 H         4.7074185961      -10.2976734003       -5.0175861845
 H         4.6844663101      -11.9912984851       -4.6282658361
 H         2.3654980043       -5.1742839512       -6.3277044123
 H         1.1788331397       -4.2364774415       -7.1567911721
 H         2.3377546268       -5.0595256153       -8.1098167133
 H         1.3469317280       -7.2402418251       -5.4526162073
 H        -0.2206046398       -7.7488094453       -5.9576517372
 H         0.0059487791       -6.0904755019       -5.3869804329
 H        -4.8780645188       -1.1005227523       -8.6890903346
 H        -3.6929587377       -1.8712236801       -7.6542399934
 H        -4.8445945859       -2.7956349180       -8.6195481339
 H        -3.1514266487       -1.5711668126      -12.1889076755
 H        -4.8083780904       -1.3966262519      -11.3535956094
 H        -3.9169703415       -3.0111939857      -11.6252214535
 H         1.0225755400        5.7066348146      -10.3299998271
 H        -0.1973002693        5.3272661962      -11.5529011300
 H         1.2205723298        4.2916002228      -11.3796239717
 H         1.3777940918        2.7978853891       -9.1743904931
 H         0.4672910730        3.0922102268       -7.7681157843
 H         1.3927388193        4.3597774149       -8.4611387123
 H        -1.1857459773        9.6679306508       -4.2859058013
 H        -1.0535519321        8.2526030789       -3.5472778908
 H        -2.5682324347        9.2201554663       -3.3378295192
 H        -4.1802818920        6.8152611194       -5.2996307366
 H        -4.5531135113        8.4128959361       -4.5718134193
 H        -3.6613624787        6.9971046765       -3.7546111973
 H        -2.3064488947       13.2834027313      -10.2203176863
 H        -2.7299075887       13.0570098754      -11.8923920484
 H        -1.3289404099       12.3559010797      -11.2996905729
 H        -4.8650824781       10.1643072475       -9.8910745990
 H        -5.2463928305       11.1715401813      -11.1861511085
 H        -4.8533230237       12.0243142272       -9.6424976563
 H        -1.1537884852        6.2710540680      -15.3966240570
 H        -1.2639520331        7.8738771553      -16.0617267973
 H        -2.1028290826        6.5427617210      -16.7368216065
 H        -4.5529349422        8.7915168800      -14.5470099970
 H        -3.9742334953        8.6854616652      -16.1620364794
 H        -2.9377603767        9.5369846419      -15.0502199615
 H        -7.2264234054        2.6338416879      -14.5183362975
 H        -8.4709425137        3.4855842481      -13.6185697172
 H        -8.1556996607        1.8267381668      -13.1758523046
 H        -6.1401695279        3.3870449951      -10.4175941727
 H        -7.2046270884        2.0592473676      -10.5827515710
 H        -7.9172074548        3.5948328724      -10.6525148063
 Na       -3.2327021021        4.6710943844      -12.0187886230
 Na       -1.4590825667       -9.3882077136       -7.9237167426
