232

 C        -5.0711777465        1.3617001845      -13.8659002036
 C        -5.3062179951        2.2049851402      -12.5890788205
 O        -4.6215834370        2.3442687044      -11.6109632658
 C        -6.6597787177        3.1393796327      -12.5969634018
 C        -6.1056042505        4.5647580657      -12.8783439565
 O        -5.6130496802        5.2642996715      -12.0072519085
 C        -6.2059128168        5.0056225018      -14.3167650309
 C        -5.4531003315        6.2615351333      -14.7680144784
 C        -3.9031745304        6.1027634141      -14.6876836540
 O        -3.4581459422        5.0162775889      -14.4143140763
 C        -2.9499805996        7.3032804909      -14.8074693189
 C        -2.2830862129        7.7227300337      -13.4343427360
 O        -2.1789748656        6.9431931315      -12.5012344018
 C        -1.3074784038        8.8701059538      -13.4908083232
 C        -1.3489473646        9.6142946881      -12.1262554177
 C        -2.7805735380       10.0548404722      -11.7598655877
 O        -3.6834978456        9.5657846778      -12.3633314385
 C        -2.9684243801       11.1061220721      -10.6098770927
 C        -2.4489279356       10.5951871993       -9.2664719528
 O        -1.7696035320        9.5616954955       -9.2515819453
 C        -2.7511831568       11.2443588162       -7.8909430479
 C        -2.0516053418       10.5429056160       -6.6636162033
 C        -3.1160374687        9.5878035390       -6.0813191092
 O        -4.2710878672        9.8800034121       -6.3185584644
 C        -2.6060679881        8.5129958861       -5.2391643150
 C        -1.5826305012        7.7184648026       -6.1934136789
 O        -0.4042834796        7.6926539409       -6.0558348077
 C        -2.2333169181        6.6882468823       -7.2509150546
 C        -1.0647244578        5.7577649926       -7.8929454534
 C        -1.3523164558        5.0549544375       -9.1961122447
 O        -2.3262047708        5.1951281869       -9.9088121801
 C        -0.1522189048        4.0540438318       -9.7506320858
 C        -0.9822725068        2.8423945249      -10.4868497723
 O        -1.5135943156        2.9153981619      -11.5684014693
 C        -1.0977129598        1.5675497267       -9.6991210173
 C        -2.0612066415        0.5741555286      -10.4133044572
 C        -2.3048552572       -0.5700803193       -9.3887901357
 O        -1.8262082293       -0.5874196357       -8.2939308556
 C        -3.2364546269       -1.7815920716       -9.7635061195
 C        -2.2079223125       -3.0270175472       -9.9261033609
 O        -1.5080442244       -3.1437304275      -10.8659893062
 C        -2.3092142294       -4.1985340989       -8.8397665290
 C        -0.8912267309       -4.5489340229       -8.4091784445
 C        -0.5595646177       -6.0593355298       -8.1538018155
 O        -1.3404944687       -6.9418475314       -8.3572793317
 C         0.7681223233       -6.3748475911       -7.4303887325
 C         1.3687109474       -7.6484999534       -8.1352780462
 O         0.6451412915       -8.6149638349       -8.3854985934
 C         2.8982358255       -7.8146172999       -8.4941328448
 C         3.5402602723       -9.2741922019       -8.2248036222
 C         3.1959737591       -9.7718929479       -6.7945476422
 O         2.7462152429       -9.0133638692       -5.9654595895
 C         3.4237371198      -11.2140639543       -6.3021837435
 C         1.9451761587      -11.9858097217       -6.4089282089
 O         1.6339636700      -12.2843748166       -7.5323708587
 C         1.0445329081      -12.3422614277       -5.2008505524
 C        -0.0436695876      -13.2593071438       -5.7853761703
 C        -0.6905335342      -12.5595122237       -6.9734962168
 O        -0.8400814379      -11.3722623792       -6.8463141577
 C        -1.4095104475      -13.3815730291       -8.1289878253
 C        -1.9904601798      -12.3236291458       -9.1038248493
 O        -1.2098438965      -11.6038174668       -9.6844476048
 C        -3.5470043756      -12.0432311980       -9.1150950037
 C        -3.9351346964      -10.7369987101       -9.7730871809
 C        -4.4917003624       -9.7311266179       -8.6849846174
 O        -3.7891850996       -9.2149003419       -7.8908530406
 C        -6.1533467369       -9.3278988055       -8.6085186433
 C        -6.6932431067       -9.0825811598      -10.0767614315
 O        -6.7112464794      -10.0285581496      -10.7901226708
 C        -7.2461027991       -7.7006264462      -10.3819649490
 C        -7.6263010340       -7.6841644999      -11.9578534806
 C        -6.4765180555       -7.1257278633      -12.8952324461
 O        -5.4516478943       -6.7043599966      -12.4214914415
 C        -6.6434288108       -6.9612242633      -14.4598548794
 C        -6.8488470639       -5.3974762190      -14.7531893312
 O        -5.9540422046       -4.6267253644      -14.8586426801
 C        -8.3024778866       -4.9451830047      -14.9972551750
 C        -8.5297827293       -3.4750157783      -14.7255403019
 C        -8.7512578899       -3.1850823650      -13.2189298631
 O        -8.1379644197       -3.7284822793      -12.3349292080
 C        -9.8673286987       -2.1496433880      -12.7763246271
 C        -8.9832326030       -0.8648724638      -12.4732970984
 O        -8.8848374431       -0.0663567679      -13.3695117254
 C        -8.3337311288       -0.6506599886      -11.0353365440
 C       -10.8897933855       -1.8922686126      -13.8369982920
 C       -10.5745856679       -2.7369101865      -11.4474776657
 C        -5.2438799746       -7.3050101121      -15.0142425877
 C        -7.8483559287       -7.8641541233      -15.0041071735
 C        -6.9080389642      -10.5531334866       -7.9611569794
 C        -6.3607398188       -8.1596664725       -7.6073792730
 C        -0.4126827099      -14.2842150280       -8.9778186436
 C        -2.4907576435      -14.2805376770       -7.4673049927
 C         4.4263215762      -11.9671303256       -7.3037878398
 C         3.8827365979      -11.2096887520       -4.8083333480
 C         1.6826652768       -5.1667278982       -7.3273577092
 C         0.4765117806       -6.8651721730       -5.9491982099
 C        -4.3499343321       -2.1042027076       -8.7205564566
 C        -3.8399230457       -1.6791557745      -11.1796850497
 C         0.6390278942        4.8368439077      -10.8358191785
 C         0.7953854060        3.6016542711       -8.6455178723
 C        -1.6884275360        8.9139713243       -4.0054691537
 C        -3.7256886908        7.5801863763       -4.7847988227
 C        -2.4344372807       12.4753313537      -10.9348024077
 C        -4.5050317980       11.2806576530      -10.4060700938
 C        -1.7787601098        6.7957730214      -15.6817127674
 C        -3.7594360345        8.5575871166      -15.4370565065
 C        -7.8933701446        2.8193014215      -13.5846259889
 C        -7.2196749720        2.9591881472      -11.0884547632
 H        -5.8790209915        1.3047691343      -14.5485041461
 H        -4.6575997428        0.3880588300      -13.6529337954
 H        -4.2013678547        1.8009218463      -14.3390105819
 H        -7.2553344237        5.2321478714      -14.4926821669
 H        -5.9027026258        4.1626781652      -14.9897980473
 H        -5.7246124001        7.1735502892      -14.1898283130
 H        -5.8303265601        6.4090271201      -15.7746374666
 H        -1.6010634979        9.5957946438      -14.2922874637
 H        -0.2283798168        8.5541312074      -13.4539424584
 H        -0.7545042752       10.5370379744      -12.0903040801
 H        -1.0060208972        9.0278365146      -11.2785064339
 H        -3.8726704256       11.2478233143       -7.6294827626
 H        -2.5156134382       12.3323987378       -7.9802900745
 H        -1.7549565736       11.2291221307       -5.8812006092
 H        -1.1772113709        9.9130567395       -7.1342344217
 H        -2.6910500035        7.3232734963       -8.0366440115
 H        -3.1053587691        6.1020884455       -6.8542048089
 H        -0.9176376532        4.9550951494       -7.1978428531
 H        -0.1010747056        6.3089808770       -7.9132648200
 H        -1.6863351869        1.8743377396       -8.7624838365
 H        -0.1725305269        1.0314214390       -9.5839550721
 H        -1.7311092112        0.2514569330      -11.3913347378
 H        -2.9650290458        1.0668949911      -10.6187225617
 H        -2.8401262043       -5.0645388198       -9.2148381325
 H        -2.8529504017       -3.9204674299       -8.0752811172
 H        -0.6458494160       -4.0196929957       -7.4231436238
 H        -0.2795523581       -4.2251346372       -9.2190774261
 H         3.3314598076       -7.0875375709       -7.8112507088
 H         3.0502681821       -7.6073990825       -9.5531092418
 H         4.6045496756       -9.0974101429       -8.4387517104
 H         3.0174302586       -9.9186665363       -8.9717490860
 H         0.7306810142      -11.3672635815       -4.7550447961
 H         1.7012031860      -12.8280489606       -4.3434814758
 H        -0.8089408055      -13.5904046181       -5.0217390572
 H         0.4098875453      -14.2016429071       -6.1465713709
 H        -3.8825448581      -12.0402437016       -8.0969297416
 H        -4.1199824984      -12.8111218992       -9.7601036805
 H        -4.6425491937      -10.9362797359      -10.5265381175
 H        -3.0077848591      -10.4119340524      -10.2927874598
 H        -6.5907479972       -6.8475314539      -10.1290354730
 H        -8.2080361910       -7.6650600195       -9.8111548336
 H        -8.5153537834       -7.1375911898      -11.9566163608
 H        -7.8694779558       -8.6508829452      -12.3112986243
 H        -9.0712728269       -5.5002534607      -14.4144336297
 H        -8.5747642316       -5.0884134170      -16.0113974065
 H        -9.4642575880       -3.2235324394      -15.1740630686
 H        -7.6594468168       -2.8700414408      -15.1667183965
 H        -7.3548010118       -0.1859449209      -10.9446714325
 H        -8.2024353478       -1.5521138278      -10.4253380738
 H        -9.0864460984       -0.0629576644      -10.5718930976
 H       -11.5084031415       -2.7575289305      -14.0066131085
 H       -10.5100687378       -1.4401101192      -14.7159579988
 H       -11.6170028072       -1.2301873030      -13.3543786377
 H       -11.0795122667       -3.6885660712      -11.6275312731
 H       -11.3706516219       -2.0070721998      -11.0668622181
 H        -9.7500694818       -2.8493101138      -10.6704356468
 H        -5.0223767227       -7.0492016182      -16.0818513718
 H        -4.9430551832       -8.4344371242      -14.8807903953
 H        -4.5580502590       -6.6660280650      -14.3762881750
 H        -8.0155757785       -7.7643339819      -16.0307635236
 H        -8.7358367683       -7.6598410607      -14.3037385748
 H        -7.5515256278       -8.8764884009      -14.7353207478
 H        -7.8888219813      -10.1904894210       -7.6783137918
 H        -6.4432007358      -11.0523562114       -7.0745506917
 H        -7.0621407855      -11.2968762011       -8.7485970255
 H        -7.3953391950       -7.8912254414       -7.5883369723
 H        -5.7886550427       -7.3233244944       -7.9536171555
 H        -6.1289767348       -8.4329445977       -6.5771823909
 H         0.1892467776      -15.0090328975       -8.4269407218
 H         0.1825108883      -13.6282672825       -9.5312350335
 H        -0.9969307537      -14.8416398133       -9.7861792414
 H        -2.1297890623      -15.0598442454       -6.8006674849
 H        -2.7825800913      -14.9005324072       -8.2630630148
 H        -3.2536601123      -13.6340255420       -7.0193077389
 H         3.9733185030      -11.9106736790       -8.3115390448
 H         4.6282313669      -13.0370457053       -7.0231218900
 H         5.3988539591      -11.5177786872       -7.1511702098
 H         3.1080211036      -10.8049563354       -4.1846073024
 H         4.7416743311      -10.5048753797       -4.7454390926
 H         4.2978209935      -12.1899766150       -4.5144638835
 H         2.2167083372       -5.1427298486       -6.3943419816
 H         1.1686719274       -4.2239611644       -7.3161329420
 H         2.3716118780       -5.0515586397       -8.1752820658
 H         1.3234398186       -6.8620910380       -5.3257318140
 H         0.1588101809       -7.9062732721       -6.0498496977
 H        -0.3193237407       -6.2306782606       -5.5154327686
 H        -5.2033346946       -1.3595485824       -8.7059499484
 H        -4.0355202929       -2.0782709897       -7.7193880295
 H        -4.8922861647       -3.0802485961       -8.8301179475
 H        -3.2718345101       -1.3027681331      -11.9749848355
 H        -4.7276181832       -1.0592252220      -11.0992710895
 H        -4.1177240851       -2.7515220316      -11.5064073563
 H         1.0464279877        5.7806849891      -10.3877487166
 H         0.0932500034        5.1452688784      -11.7074056376
 H         1.4773950406        4.2195082426      -11.1612427326
 H         1.7177656125        3.0402338649       -8.8792022894
 H         0.3138447056        2.9151781092       -8.0046705107
 H         1.0829868546        4.3891103033       -7.9376276003
 H        -0.7241486290        9.3610152753       -4.2485010623
 H        -1.3643487578        8.0318437470       -3.5092091186
 H        -2.3267762958        9.5604275887       -3.3801492376
 H        -4.2753282888        7.2599383532       -5.6286830244
 H        -4.3275119898        8.1464176982       -4.1447375130
 H        -3.3639666034        6.6628817860       -4.3573621592
 H        -2.9236116372       13.3535447943      -10.4927781549
 H        -2.5643181931       12.6011474264      -12.0110970396
 H        -1.3918359354       12.6813873373      -10.8222899208
 H        -4.7585753970       10.3517463158       -9.9016035198
 H        -5.1397502576       11.1931553239      -11.3073123171
 H        -4.6605813961       12.2032025505       -9.8478308857
 H        -1.2493439291        6.0429937484      -15.1860495619
 H        -1.1297839618        7.5557358706      -15.9213542263
 H        -2.0443996164        6.3425648741      -16.5879616123
 H        -4.5807907688        8.8785740620      -14.8039394520
 H        -4.1730626567        8.2796863572      -16.4228022549
 H        -3.0646298481        9.3290565497      -15.6395783801
 H        -7.5685935489        2.5669478786      -14.5811843886
 H        -8.5412798422        3.6925618590      -13.6871307548
 H        -8.5143495803        2.0695049819      -13.1481316402
 H        -6.6069719144        3.4722470184      -10.4113996221
 H        -7.0573723476        1.9908988795      -10.6767438215
 H        -8.2789101232        3.1392115775      -10.7897253967
 Na       -3.1873083387        4.7510429542      -12.0510501703
 Na       -1.4922074959       -9.4333009511       -8.1593293706
