232

 C       -21.8541712874       -7.5492055737       -2.9397864118
 C       -20.9740959701       -6.3625219104       -3.4536657759
 O       -20.0487644023       -6.0792679660       -2.6705190237
 C       -21.0928483290       -5.8106331344       -4.9096808726
 C       -20.3687582413       -4.3974958038       -4.9697152567
 O       -20.3019567676       -3.6435785716       -4.0324976885
 C       -19.8374191199       -3.8423150728       -6.3198374163
 C       -18.3362439958       -4.2025781750       -6.6618259244
 C       -17.4918911643       -4.2167868565       -5.3181059444
 O       -17.9105819672       -5.0137319116       -4.5285601025
 C       -16.1921275185       -3.3742729255       -5.0582771910
 C       -16.2358402990       -3.0462806016       -3.5071441151
 O       -17.3352277872       -2.7459183122       -3.0245845400
 C       -14.9866747675       -3.0638653124       -2.7460813173
 C       -15.1793063058       -2.6308706460       -1.2858256680
 C       -15.7916973104       -3.7330975759       -0.3236688941
 O       -16.8095229906       -4.3597963141       -0.6315849830
 C       -14.8845090766       -4.0821140423        0.9788147420
 C       -13.3216086201       -4.0468690682        0.5065984493
 O       -12.6207457918       -3.0071481206        0.6908604406
 C       -12.8434344845       -5.2624022263       -0.2729799658
 C       -12.2519407889       -5.0305762093       -1.7078505059
 C       -12.7815233548       -6.0599030127       -2.7098684205
 O       -13.8957412002       -5.9241329827       -3.2293021423
 C       -11.8463553711       -7.2593338914       -3.2082807670
 C       -10.3900205603       -6.7241957282       -3.6339613831
 O       -10.1439641885       -5.5392067976       -3.5783542085
 C        -9.4194478941       -7.7159896413       -4.2869386988
 C        -7.9751624384       -7.2742060894       -4.2001598722
 C        -7.6202478181       -5.8038544338       -4.5316379192
 O        -8.1517893700       -5.0582664114       -5.2872619871
 C        -6.2031463890       -5.3877489250       -3.8071907590
 C        -5.0709752674       -6.1465624669       -4.6510683835
 O        -4.7498124886       -7.3027278122       -4.4959739118
 C        -4.2344356882       -5.2951810146       -5.6157597539
 C        -2.6772230397       -5.3586479646       -5.2737931550
 C        -1.9502021808       -4.0369377361       -5.5536919884
 O        -2.5947780021       -3.0110340207       -5.5919141857
 C        -0.3285684109       -3.9677092087       -5.8101537813
 C        -0.2853563496       -4.5821967420       -7.3431768159
 O        -0.2148371566       -5.7580846570       -7.5629261392
 C        -0.4813179579       -3.6277394189       -8.5505198257
 C        -0.2317562156       -4.2377929063       -9.9557674714
 C         1.1837472135       -4.8238612363      -10.0715700214
 O         1.9973607217       -4.7636994390       -9.2317666434
 C         1.5861589848       -5.5635485264      -11.5328146456
 C         1.6332810208       -4.3463390172      -12.5079978513
 O         0.8473267503       -4.2895733083      -13.4521951037
 C         2.5379757494       -3.1478796813      -12.2163386862
 C         2.1842607000       -1.9823385786      -13.2286129278
 C         3.1543123438       -0.7953633100      -12.9630185189
 O         2.9695781548        0.1651466607      -12.2599865608
 C         4.6376895125       -0.9072289731      -13.6640646943
 C         4.6522816963        0.2722095164      -14.8137029332
 O         5.1618939299        0.0765308643      -15.9093120144
 C         3.7782882879        1.6304142165      -14.5682044010
 C         4.3366463698        2.4967568207      -13.3856157834
 C         5.7087310715        3.0019090818      -13.7080347133
 O         6.3042112024        2.5749963125      -14.6786865339
 C         6.3813174381        3.9423937161      -12.7885198451
 C         6.6124200882        5.3783778361      -13.5143843274
 O         6.3236490578        6.3935034955      -12.9338191511
 C         6.7756637548        5.2698441877      -15.0817307404
 C         7.1392803830        6.4321064079      -16.0115642531
 C         6.4125042065        6.1360201117      -17.4104627551
 O         6.2315063743        4.8926048910      -17.6951806532
 C         5.7815420642        7.1939846706      -18.2516586430
 C         6.9523767401        7.1267760287      -19.5088345415
 O         7.8472374666        7.9299730831      -19.3743786211
 C         6.9638713410        6.0801215733      -20.5472763345
 C         8.1854063839        5.9918992806      -21.4189610329
 C         8.0262701531        5.0035718303      -22.6990341679
 O         6.9206337346        4.6342309690      -22.9745017567
 C         9.4377208693        4.6113469704      -23.3608459088
 C         9.7590711478        3.1143642368      -22.7757387860
 O         9.6643581332        2.1539954550      -23.4701898482
 C         9.7354852463        2.9565461778      -21.1754162873
 C         9.1736440462        1.6092706517      -20.7172148819
 C         8.2758349314        1.5218541136      -19.4610210556
 O         8.2035720332        2.4950626170      -18.7033991418
 C         7.5368656405        0.2119312519      -19.1990579592
 C         5.9099181611        0.3873238031      -19.2471770608
 O         5.4179061321        1.3881694191      -18.7200211187
 C         5.0930684615       -0.7079140335      -20.0794823690
 C         8.0252815996       -1.0343121062      -20.0444866366
 C         7.7295033779       -0.0082790600      -17.6887905473
 C         9.0141116131        4.3989953753      -24.8144367828
 C        10.5576955514        5.6517822934      -23.1373910388
 C         4.2608598758        7.0550370018      -18.5992710678
 C         6.0044492158        8.6724613381      -17.7142378288
 C         5.5980216841        4.3418869796      -11.5188096140
 C         7.7940226875        3.5148723450      -12.4742432446
 C         5.7199703569       -0.6052420087      -12.5093435228
 C         4.9865988632       -2.2534896730      -14.3336013374
 C         3.0895160456       -6.0440935882      -11.2488232617
 C         0.7278985975       -6.8006007990      -11.7883942246
 C         0.1544646652       -2.5733098340       -5.7381894942
 C         0.5455711522       -4.8610456585       -4.8285762506
 C        -6.0661627367       -3.8506056690       -3.7807931076
 C        -6.1237486388       -5.9594906936       -2.3372485934
 C       -11.9322861462       -8.1136727988       -1.9274522930
 C       -12.5672291051       -7.8546318757       -4.3884524597
 C       -15.1530697122       -2.9514135189        2.0333972785
 C       -15.3323393437       -5.5324514976        1.5168285601
 C       -15.0793980560       -4.2592380209       -5.6304040932
 C       -16.2721063397       -1.9655437004       -5.7056439241
 C       -20.3340358953       -6.7359705901       -5.9018007143
 C       -22.6061340131       -5.5955240306       -5.3514597943
 H       -22.8110958641       -7.5860257689       -3.3717589658
 H       -22.0257091247       -7.2332656093       -1.8798272817
 H       -21.2698085192       -8.4125936659       -3.0097187255
 H       -19.7802195896       -2.7426473291       -6.2560301573
 H       -20.3802523376       -4.1508597862       -7.2506919288
 H       -17.9827459707       -3.4896465424       -7.4881773614
 H       -18.2812144337       -5.2486316901       -7.0016258980
 H       -14.1571312692       -2.4294292722       -3.1325978736
 H       -14.5799870927       -4.0588656114       -2.6444227565
 H       -15.8028552944       -1.6644944941       -1.3442383890
 H       -14.2818385923       -2.2579423742       -0.8975882549
 H       -13.7053449249       -5.9376305962       -0.3895074592
 H       -12.1699321764       -5.8668254250        0.3357044415
 H       -11.1792933810       -5.1346200013       -1.6963518138
 H       -12.5437702545       -4.0720923212       -2.0984060704
 H        -9.8590551474       -7.8018329792       -5.3257866018
 H        -9.6433313031       -8.7642970313       -3.8487039009
 H        -7.2056537869       -7.7972042983       -4.7793504381
 H        -7.6830623710       -7.4405499159       -3.1607166897
 H        -4.5938732681       -4.2188713329       -5.5876530952
 H        -4.3406958362       -5.7560400963       -6.6669005053
 H        -2.3247610770       -6.1047799458       -6.0053743798
 H        -2.4326999039       -5.8235467524       -4.3775070756
 H         0.1250916401       -2.8147775721       -8.3176228292
 H        -1.5784548443       -3.2706341509       -8.5065054194
 H        -0.2752540768       -3.4045396325      -10.7185561219
 H        -0.9761684401       -5.0715946945      -10.1855688145
 H         3.6153274744       -3.3762795618      -12.1663390251
 H         2.2848290955       -2.7451399341      -11.1697878595
 H         1.1069675983       -1.7169410134      -13.2244674202
 H         2.3316742185       -2.3358584201      -14.2466807001
 H         2.8002074453        1.3445238489      -14.2139484540
 H         3.8616788364        2.1699104096      -15.4975053267
 H         4.4193942978        1.8817500487      -12.4787996051
 H         3.6756633053        3.3809974910      -13.2333094169
 H         5.7504381423        4.9750816504      -15.2975536387
 H         7.4149935969        4.4377872691      -15.3760091004
 H         8.2481233422        6.5234474299      -16.0842939274
 H         6.8061358913        7.3546810589      -15.6274619713
 H         6.0231029685        6.2433717412      -21.1683630826
 H         6.9132395452        5.0906617147      -20.0619127616
 H         9.0941014875        5.7971272598      -20.8290647300
 H         8.4244876423        7.0195288934      -21.7859052744
 H         9.2615085638        3.7637098586      -20.5882794834
 H        10.7797619609        3.0965935746      -20.8432296452
 H        10.0340197007        0.9222897158      -20.5416264404
 H         8.4109924816        1.2136057329      -21.4519325908
 H         5.6744952490       -1.6385384828      -19.9768619983
 H         5.1662340985       -0.4253840249      -21.1281028581
 H         4.0835498396       -1.0209721197      -19.7602862691
 H         7.5980442968       -1.8971989738      -19.5413692504
 H         9.0342078985       -0.9602542692      -19.9946101094
 H         7.7572247391       -0.8879088037      -21.1020062353
 H         8.7555799953        0.4335725309      -17.3964571431
 H         7.7781541893       -1.0547708313      -17.3053950530
 H         6.9084522296        0.4403103897      -17.0542029970
 H         8.3580708187        5.1330124200      -25.1967553581
 H         8.6596718050        3.3533675867      -24.8623749342
 H         9.8674800439        4.3569389424      -25.5850092379
 H        11.3565131951        5.3585952456      -23.8004179566
 H        10.9997566128        5.8064853338      -22.1278844762
 H        10.1486517835        6.6039247579      -23.4250933277
 H         3.8236871223        7.5369837843      -17.7633121511
 H         3.9922011916        5.9825075561      -18.7089895997
 H         4.0062216001        7.5990513248      -19.4679641826
 H         7.0262634132        8.9124586195      -17.4660437018
 H         5.3209012972        8.9205543348      -16.8682729007
 H         5.6137157022        9.2820963335      -18.5490026269
 H         6.1285580804        5.2618379046      -11.1761625317
 H         5.5597081487        3.6802081766      -10.6851918601
 H         4.5808837951        4.6297472094      -11.6878020580
 H         7.7507368430        2.4291470208      -12.4617846415
 H         8.1029341722        3.9133292649      -11.5357839264
 H         8.2946112385        3.6150715479      -13.3630753014
 H         6.6159106157       -1.1990812152      -12.6138365320
 H         5.2990775425       -0.8751446636      -11.5862846203
 H         6.1243835187        0.3293375982      -12.2924978569
 H         5.0640866303       -3.1207373560      -13.6746583881
 H         6.0651889974       -2.1525443575      -14.6216865769
 H         4.3509454194       -2.5088294165      -15.1606153160
 H         3.3148391035       -6.9139108015      -10.7118321757
 H         3.5883490809       -5.0987966256      -10.8832867579
 H         3.5322437974       -6.3723611946      -12.1980278526
 H        -0.2076685886       -6.3447983877      -11.9595327391
 H         0.7081169088       -7.4782080619      -10.9494139144
 H         0.9928615442       -7.3429223935      -12.6923610497
 H         0.3195737182       -2.1953765062       -4.7439532965
 H        -0.5964515938       -1.8961631378       -6.2033647716
 H         1.1589768677       -2.3453417211       -6.2316284664
 H         0.9705156752       -5.7513292672       -5.3182809964
 H        -0.0525059510       -5.1363904769       -3.9550943440
 H         1.3035855812       -4.2611415799       -4.3003517080
 H        -6.6146442421       -3.3410490179       -4.5870943544
 H        -5.0369057004       -3.5287154504       -3.7961393669
 H        -6.4623272851       -3.3973514183       -2.8603736224
 H        -7.0551378115       -6.0450841203       -1.7182896474
 H        -5.5034610170       -5.3174920656       -1.7186511635
 H        -5.5604027234       -6.9110485106       -2.3028412241
 H       -12.9805790150       -8.3956061918       -1.7606062331
 H       -11.3797889803       -7.5661457213       -1.1399518949
 H       -11.4229137263       -9.0391520233       -2.0746586354
 H       -13.5803078202       -8.0677129754       -4.1493826303
 H       -12.0651977054       -8.7868548793       -4.7246827296
 H       -12.4740059375       -7.1648296010       -5.3181196096
 H       -15.3587809900       -3.4055736666        2.9889187571
 H       -16.1524583368       -2.3947544168        1.8030950421
 H       -14.3326321297       -2.1740648294        2.1137159129
 H       -15.4057455134       -6.2731236667        0.6568194437
 H       -16.2328652782       -5.4232133144        2.1745786019
 H       -14.4741426586       -5.8969440096        2.1837623478
 H       -15.1290620842       -4.3041662005       -6.7413301312
 H       -15.2747990777       -5.2547977393       -5.2581413029
 H       -14.0675777218       -3.8777013936       -5.4676555475
 H       -17.1893990971       -1.4005412773       -5.3786594868
 H       -16.1204745317       -2.0359036121       -6.8261988812
 H       -15.4896460915       -1.2226249319       -5.3746166867
 H       -19.3012056626       -6.7509421545       -5.7598829774
 H       -20.4797168178       -6.4509454053       -6.9388792962
 H       -20.6707408633       -7.7556137319       -5.7193751183
 H       -22.7531532396       -4.4642104313       -5.5038919306
 H       -23.3486153255       -5.9607473188       -4.6724422304
 H       -22.8588763168       -5.9998756309       -6.2889385844
 Na      -18.6621110078       -4.3743049731       -2.1239547019
 Na        6.4345906325        2.7775292847      -17.1340870262
