232

 C        -5.7463455868        1.6146373525      -13.2127152162
 C        -5.5181398763        2.8822184520      -12.3975995778
 O        -4.4299464770        3.0341656806      -11.8420962197
 C        -6.6401686860        4.0029162895      -12.3255308036
 C        -6.0005261673        5.4257952651      -12.5607365202
 O        -5.1504154493        5.7970464708      -11.7724487762
 C        -6.4431941438        6.2484495391      -13.6973430367
 C        -5.1605614854        6.8862870541      -14.2503161305
 C        -3.9718480127        5.9564080039      -14.4627796991
 O        -4.0427770506        4.7480916649      -14.4162177348
 C        -2.5834480514        6.4922699087      -15.1001353325
 C        -1.9009588681        7.1178261239      -13.8463419229
 O        -1.9145337287        6.5936534935      -12.7543114411
 C        -1.2014832412        8.4764468704      -13.9327151617
 C        -1.3237721045        9.1371100836      -12.5278213242
 C        -2.6867844652        9.7780599804      -12.2810550038
 O        -3.6599430235        9.4755730282      -12.8971466453
 C        -2.7760021447       10.8813964980      -11.2076071467
 C        -2.1840990730       10.4647305452       -9.8562816777
 O        -1.3700890229        9.5269114943       -9.7841260019
 C        -2.3019974970       11.3654366028       -8.7127663833
 C        -1.8292061642       10.6381064491       -7.3668240451
 C        -2.9288481193       10.1011814261       -6.4263626844
 O        -4.0139994155       10.5878852469       -6.3357716179
 C        -2.3201923378        9.0302925506       -5.4281258224
 C        -1.3178784100        7.9688858378       -6.1239944426
 O        -0.1427147003        7.8837888964       -5.9722381225
 C        -2.0103116438        6.9825539351       -7.1457502239
 C        -0.8221025719        6.0150704450       -7.6591339406
 C        -1.3581926299        5.1604322075       -8.8511052771
 O        -2.2965892639        5.4627365912       -9.5409910858
 C        -0.4214878337        3.8895421272       -9.3563468017
 C        -1.4359475413        2.8137818888       -9.7421731496
 O        -2.0061163224        2.8418369240      -10.8301755730
 C        -1.5803013773        1.5727737942       -8.7005306658
 C        -2.1075602767        0.3423343059       -9.4856491709
 C        -2.7708468956       -0.6393058001       -8.5327830093
 O        -2.8095014532       -0.4045987770       -7.3495446882
 C        -3.2469169068       -2.0063811542       -9.2398936477
 C        -1.9654601846       -2.7517037408       -9.7439988884
 O        -1.1807813483       -2.2281095612      -10.4539836788
 C        -1.7190918196       -4.1654095347       -9.1339355663
 C        -0.5475548373       -4.8844825699       -9.9040979948
 C        -0.3106212220       -6.1152525183       -8.9854667873
 O        -1.1151516323       -7.0185818896       -9.0043237959
 C         0.9054449021       -6.3537974503       -7.9575184585
 C         1.5950505201       -7.7386364268       -8.0696899140
 O         0.9967387029       -8.7663839261       -8.3370857914
 C         3.1168768786       -7.8532317253       -7.6971630374
 C         3.5386776720       -9.3145780723       -7.7416797889
 C         3.4261798179      -10.0271423644       -6.2734114183
 O         3.1657792759       -9.3492556790       -5.3280396573
 C         3.8116667291      -11.5530582773       -6.2007785113
 C         2.3519659616      -12.1798482277       -6.3737964720
 O         2.0296997568      -12.6111702654       -7.4544356698
 C         1.3154033903      -12.0795716021       -5.2172969087
 C        -0.0534067980      -12.7914157667       -5.4672533060
 C        -0.6350881089      -12.1627247744       -6.8319645584
 O        -0.6024908466      -10.9749473254       -6.9270641788
 C        -1.5691483815      -12.9700320506       -7.9237986556
 C        -2.3226152765      -12.0096489343       -8.9243675890
 O        -1.7397897777      -11.0438088488       -9.3304952477
 C        -3.7616918841      -12.4558322246       -9.4390418569
 C        -4.6178589471      -11.3822623441      -10.1893171638
 C        -4.6569245355       -9.9785964544       -9.5869413231
 O        -3.6724910976       -9.3164764776       -9.3788337712
 C        -6.0639029151       -9.5322986419       -9.1200531938
 C        -7.0900560202       -9.1447441387      -10.4698400946
 O        -7.1911076753       -9.8994438671      -11.3603693172
 C        -7.9332119615       -7.7440591206      -10.4162744292
 C        -8.1063177307       -7.1926952126      -11.8426557286
 C        -6.8087298538       -7.4063286257      -12.5364943376
 O        -5.8456813058       -7.5223035295      -11.7975894103
 C        -6.6843589256       -7.1718540963      -14.0764623697
 C        -7.1637393232       -5.7479323532      -14.3747621024
 O        -6.3776289897       -4.8481628666      -14.5858946969
 C        -8.6279757530       -5.3885739785      -14.5888727877
 C        -8.8439684923       -3.8581119695      -14.2124867760
 C        -9.8350010453       -3.7409428223      -13.0730656906
 O       -10.1112062189       -4.6466781091      -12.3431618424
 C       -10.3239319540       -2.2433313759      -12.7028230213
 C        -9.0658037245       -1.2240832646      -12.6119864112
 O        -8.8883037854       -0.4993345224      -13.5781863724
 C        -8.0522966050       -1.2517038857      -11.4572536074
 C       -11.2487697322       -1.7768700250      -13.9109006963
 C       -11.1399408373       -2.1878352445      -11.3382957017
 C        -5.2554994524       -7.2305610095      -14.5432721214
 C        -7.4707734753       -8.1773074240      -15.0075524049
 C        -6.8765581375      -10.5871527051       -8.2478927110
 C        -5.7312441139       -8.2505348664       -8.4152246124
 C        -0.7904302541      -13.9104078186       -8.9806508437
 C        -2.5162718028      -14.0091307484       -7.1962335381
 C         4.7811518478      -12.1334837002       -7.2874184776
 C         4.4216089590      -11.8436661391       -4.8636809409
 C         1.9478872627       -5.1724395568       -8.0484533250
 C         0.3766808076       -6.3207968384       -6.4719138764
 C        -3.9520098102       -2.8161095119       -8.1306989379
 C        -4.0280659820       -1.7195937788      -10.4961701554
 C         0.1953228846        4.4398449864      -10.6289924527
 C         0.6499638744        3.4311662197       -8.3937517761
 C        -1.5083359696        9.8603532736       -4.3270066557
 C        -3.4147444358        8.1686674042       -4.7473836787
 C        -2.0338441554       12.0340192181      -11.9649730516
 C        -4.3455694092       11.3001558887      -10.9508931649
 C        -1.7535143121        5.2410077284      -15.5045271975
 C        -2.6224728039        7.3877026467      -16.3390924726
 C        -7.8112675506        3.6870901714      -13.3852820018
 C        -7.2147120838        3.8092649431      -10.9250385476
 H        -5.1248840925        1.6025092030      -14.1054129732
 H        -6.7798650834        1.4257585802      -13.5080326412
 H        -5.3742432264        0.7645508250      -12.5842440630
 H        -7.1132638954        7.1164088509      -13.4405619509
 H        -6.9853886745        5.6370425861      -14.4096307818
 H        -4.8440713989        7.6857970751      -13.5579220249
 H        -5.3586869415        7.5299768506      -15.1166120437
 H        -1.6334753125        9.1779032443      -14.6395736380
 H        -0.1090771007        8.3950663256      -14.3032908324
 H        -0.5925602768        9.9702081354      -12.4234320326
 H        -1.1274188435        8.3531036304      -11.7872823524
 H        -3.3183926098       11.8505414973       -8.6288577030
 H        -1.5296271382       12.1197280461       -9.0506708355
 H        -1.2389826287       11.3537115552       -6.6820033794
 H        -1.1677299929        9.7848790891       -7.6584813229
 H        -2.4413532023        7.5896972218       -7.9979763240
 H        -2.7597920389        6.3913945845       -6.6322390755
 H        -0.3522840918        5.5046200878       -6.8178498301
 H        -0.0404386768        6.6805484941       -7.9974948084
 H        -2.2608952321        1.7753333395       -7.8573011221
 H        -0.6423443385        1.5050299949       -8.1351137976
 H        -1.3979862866       -0.1532433623      -10.0620252168
 H        -2.9540997699        0.7860516049      -10.0972502043
 H        -2.7171450703       -4.7682193648       -9.3569296434
 H        -1.5099867761       -4.0522186908       -8.0743157649
 H         0.3026613323       -4.2087621951       -9.9013221680
 H        -0.7422750052       -5.1596582978      -10.9276837274
 H         3.2581579278       -7.4033285890       -6.7202569830
 H         3.6236569457       -7.2210790183       -8.4304016553
 H         4.6178475103       -9.4284147435       -7.9276239108
 H         3.1254780769      -10.0267790103       -8.4021053331
 H         1.1972659308      -11.0639378658       -5.0250507171
 H         1.7843830104      -12.6072131836       -4.4209759629
 H        -0.8103462195      -12.4391570062       -4.6923305843
 H         0.1151402596      -13.8968769651       -5.4244611135
 H        -4.2520153593      -12.8653657947       -8.4849756872
 H        -3.7898043112      -13.3105702074      -10.0536451167
 H        -5.6663414397      -11.7438728792      -10.3094931604
 H        -4.1882430632      -11.2463053569      -11.1496540869
 H        -7.4066680909       -7.0857277008       -9.6892460720
 H        -8.9893839958       -7.8994049867      -10.0516327557
 H        -8.3079151249       -6.1468853159      -11.7596763333
 H        -8.9178216862       -7.6171759561      -12.3815169732
 H        -9.4174978095       -5.8300521132      -14.0676985924
 H        -8.8300181287       -5.4843259826      -15.6078134272
 H        -8.9816851190       -3.0699078019      -15.0139759753
 H        -7.9358115224       -3.4268351609      -13.7222842699
 H        -8.1444097551       -2.0336305840      -10.6868903578
 H        -7.8448328501       -0.2402422458      -11.1075851317
 H        -7.1286848488       -1.5299873572      -11.8693280720
 H       -11.9094503009       -2.6271731935      -14.2376310840
 H       -10.6442921807       -1.6281926557      -14.7854020438
 H       -11.7654976317       -0.8999577626      -13.7365872582
 H       -11.5415398069       -3.1748652087      -11.1554884442
 H       -11.9651490225       -1.3847983053      -11.3088092452
 H       -10.5524998096       -2.0529518398      -10.4087264847
 H        -5.3369825418       -7.3061732789      -15.6440297874
 H        -4.7448851652       -8.2474345038      -14.2544666021
 H        -4.6235674659       -6.3717054573      -14.1982285644
 H        -7.8998499033       -7.7513758704      -15.8727385914
 H        -8.3502359565       -8.5602887620      -14.4421839534
 H        -6.8365372994       -9.0581689041      -15.3189121699
 H        -7.9463602319      -10.2682414974       -8.1332916023
 H        -6.4102840772      -10.5160380476       -7.2740039536
 H        -6.8018686027      -11.5911080383       -8.7214240589
 H        -6.6250250521       -7.6468046611       -8.1567734632
 H        -5.1378242244       -7.6298068664       -9.0938683128
 H        -5.1693116798       -8.4315060479       -7.5517014296
 H        -0.0751297641      -14.5495367631       -8.4443302260
 H        -0.1823987320      -13.3718446968       -9.6872605033
 H        -1.4852229253      -14.5126074712       -9.5428332415
 H        -1.8743961801      -14.8978096342       -6.9147922510
 H        -3.2472132694      -14.2257381741       -7.9192537028
 H        -3.1125826552      -13.5887200095       -6.4291405238
 H         4.5400289347      -12.0897721396       -8.3551464442
 H         4.7940045951      -13.1909182547       -7.0776563302
 H         5.7820665181      -11.7102425270       -7.1518441082
 H         3.8615976070      -11.6288907746       -4.0110478805
 H         5.4134040722      -11.4062895234       -4.8399542571
 H         4.5307810348      -12.9290969735       -4.8212777932
 H         2.4568255228       -5.1149600646       -7.0978455738
 H         1.4602761390       -4.1746066769       -8.1034644421
 H         2.7048677613       -5.3482916595       -8.7983518829
 H         1.2262863886       -6.6021240851       -5.8943342573
 H        -0.4606492676       -6.9210876746       -6.2598218016
 H         0.1207449147       -5.2587756794       -6.2055288445
 H        -4.7791785542       -2.2723362809       -7.5823777222
 H        -3.2289956044       -2.9915366898       -7.3398999933
 H        -4.2439145695       -3.8855424612       -8.2776575814
 H        -3.4329192542       -1.4129119256      -11.2909311850
 H        -4.8451662830       -1.0446129567      -10.3930218708
 H        -4.4832885448       -2.6903724608      -10.9157152158
 H         0.8752911453        5.2808076414      -10.4958481198
 H        -0.5230356733        4.7156689511      -11.3845046488
 H         0.8473787355        3.7335484818      -11.0972969582
 H         1.3263739068        2.6626402991       -8.7223618759
 H         0.4125612098        3.2149933296       -7.3794449311
 H         1.3844038720        4.1939684964       -8.2248601163
 H        -0.5326026987        9.4672884241       -4.3818762941
 H        -2.0578678750        9.7690655377       -3.4098705271
 H        -1.4691214008       10.9483154382       -4.5484153710
 H        -3.3107523269        7.1453651743       -4.8612455940
 H        -4.3376615711        8.4608042031       -5.0802374054
 H        -3.4967521318        8.4361066813       -3.6997746995
 H        -1.8790859725       13.0265788692      -11.4270657186
 H        -2.6130251995       12.2510698932      -12.8252442496
 H        -1.0643018331       11.7433932274      -12.3584412538
 H        -4.5123152522       10.9257098516       -9.9325300472
 H        -4.8798331914       10.7941219079      -11.7835326182
 H        -4.5027771649       12.3664882974      -10.9266459311
 H        -1.7871053266        4.4898409012      -14.7581909795
 H        -0.7522096090        5.5002061630      -15.6258229053
 H        -2.1292978823        4.8178923536      -16.4097940300
 H        -2.9595320073        8.3805233153      -16.0264413765
 H        -3.2632752040        6.9211549116      -17.0641920313
 H        -1.5974629825        7.5100120713      -16.7412020040
 H        -7.4790101214        3.5919529188      -14.4259507461
 H        -8.5558950049        4.4759581883      -13.4401793202
 H        -8.2942804585        2.7504782973      -13.1639595555
 H        -6.5063870433        4.1968557809      -10.2204399252
 H        -7.2287664165        2.7414502249      -10.7292604906
 H        -8.1157594554        4.3195812778      -10.5526057313
 Na       -3.1234875393        4.8746583315      -11.6919703709
 Na       -1.2704436245       -9.1667591366       -8.3316048448
