232

 C        -5.8041876956        1.7343503272      -13.1986256619
 C        -5.4391205943        3.0242760518      -12.5381112075
 O        -4.4194879245        3.2170805898      -11.9216253061
 C        -6.6212116868        4.0143209038      -12.3412712751
 C        -5.9890228753        5.4391700849      -12.5457014566
 O        -5.2234540461        5.7524943696      -11.7184787425
 C        -6.2549751520        6.3352254574      -13.7824626908
 C        -4.9711934154        7.0795558173      -14.3059003291
 C        -4.0197703426        5.9562065028      -14.6191144621
 O        -4.2234601904        4.8245302665      -14.2539316160
 C        -2.5830639093        6.4149263601      -15.0925057640
 C        -1.8549346158        7.0432697736      -13.9054645212
 O        -1.9622674975        6.5287815744      -12.8108454446
 C        -1.1134152532        8.3740797717      -14.0061696788
 C        -1.2236552435        9.0837303721      -12.6891253020
 C        -2.6532742459        9.7070162337      -12.3451825321
 O        -3.6893028568        9.4078966589      -12.9656505082
 C        -2.6847217312       10.8160512692      -11.2873447994
 C        -1.9522135794       10.4989754405       -9.8725352760
 O        -1.4070112418        9.4125098129       -9.8228231214
 C        -2.3356358892       11.4867703574       -8.7031272257
 C        -1.7356069576       10.8201519761       -7.4099225503
 C        -2.8053741923       10.1265526462       -6.4580921111
 O        -4.0114389920       10.3489178795       -6.4432641975
 C        -2.2332860691        9.0766352494       -5.4287252718
 C        -1.3890669497        8.0630703300       -6.1189025917
 O        -0.2048993435        7.9558383600       -5.8856925035
 C        -2.0524704784        6.9455322732       -7.1463904005
 C        -0.9262632973        6.0525825288       -7.6969418366
 C        -1.2944256058        5.1779899809       -8.8161799907
 O        -2.3311172088        5.5130541087       -9.4206828509
 C        -0.4314852412        4.0215069942       -9.3355050594
 C        -1.3691814468        2.7875088892       -9.6794288816
 O        -1.9530646073        2.8102254609      -10.7236875112
 C        -1.6814524260        1.6314879803       -8.7694898394
 C        -2.2132911548        0.4272450961       -9.5465221295
 C        -2.7128792188       -0.6395368181       -8.5519977098
 O        -2.9910437664       -0.4860497325       -7.3626766114
 C        -3.0838899975       -2.0243119879       -9.1238116924
 C        -1.8673157021       -2.7954338859       -9.5965071157
 O        -1.1579736578       -2.2851301758      -10.4679023880
 C        -1.6691988837       -4.2245585775       -9.1024360669
 C        -0.6020111297       -5.0171023822       -9.8158436078
 C        -0.2955559149       -6.2669846949       -9.0565692432
 O        -1.1272489707       -7.1304413684       -9.1960387853
 C         0.9427148752       -6.3248340103       -7.9599977042
 C         1.6381935432       -7.7800814248       -8.1288125089
 O         0.9511320396       -8.7626021886       -8.3317910046
 C         3.0961889239       -7.9269698464       -7.7172092065
 C         3.6700335421       -9.3272737294       -7.7352705784
 C         3.6109132847      -10.0672614037       -6.3289180986
 O         3.2728882363       -9.4283117257       -5.3561354187
 C         3.8086830091      -11.6379404222       -6.1181077027
 C         2.4036883964      -12.2639178979       -6.3197612821
 O         2.1129946333      -12.7082567954       -7.4081959545
 C         1.3147953279      -12.1493422214       -5.1845975924
 C        -0.1064896874      -12.6666312465       -5.5703744078
 C        -0.7296645769      -12.1071881647       -6.7997441518
 O        -0.6086983139      -10.8936391054       -6.9586382010
 C        -1.6067341842      -12.9821497968       -7.9313876024
 C        -2.3458364834      -11.9877021553       -8.8815604173
 O        -1.8822244368      -11.0490937382       -9.6137889485
 C        -3.6964455180      -12.4750545806       -9.3091032613
 C        -4.4678302517      -11.4056966390      -10.2104656219
 C        -4.6295478180      -10.0388677714       -9.4803440659
 O        -3.6898937149       -9.3005056252       -9.3083314572
 C        -6.0561386041       -9.4155484461       -9.1692641303
 C        -7.0386161766       -9.1689028260      -10.4194128602
 O        -7.2916331484      -10.0452327490      -11.2368489090
 C        -8.0169956624       -7.9421000293      -10.3894732750
 C        -8.0894999724       -7.2487310724      -11.7653266905
 C        -6.7392677769       -7.2930161413      -12.5170100650
 O        -5.7085670537       -7.6126293823      -11.9178905434
 C        -6.7173233561       -7.1130113558      -14.1259946443
 C        -7.2235379754       -5.6291611202      -14.4894526402
 O        -6.3505774441       -4.7634956872      -14.4549865528
 C        -8.7407731353       -5.3704068213      -14.6232945613
 C        -8.9792385599       -3.8027789882      -14.2273903240
 C        -9.8709297363       -3.6980106385      -13.0134194039
 O       -10.2383857594       -4.7213103934      -12.4743827480
 C       -10.4233024396       -2.2564385520      -12.6929796943
 C        -9.1227509587       -1.3439147699      -12.6712379492
 O        -8.8067375951       -0.5807565776      -13.5212562541
 C        -8.1672323660       -1.5046042442      -11.4483387232
 C       -11.2431910321       -1.7113716284      -13.8479145009
 C       -11.2440681127       -2.2292005614      -11.3949907229
 C        -5.1818405928       -7.2402315406      -14.4897962633
 C        -7.5422902103       -8.1646707673      -14.8407707577
 C        -6.8469294539      -10.5629868460       -8.3422131004
 C        -5.8343469888       -8.0793333693       -8.3794259805
 C        -0.7256960966      -13.8120182139       -8.8815985946
 C        -2.5594653015      -13.9553106894       -7.2619730896
 C         4.6613280756      -11.9941173633       -7.2848157950
 C         4.5211581990      -11.8685870406       -4.7263467621
 C         1.9911910126       -5.1093180357       -8.0682639831
 C         0.3355483998       -6.2964100110       -6.5736270049
 C        -3.9312661518       -2.8317351585       -8.0651857717
 C        -4.0654458811       -1.7660222134      -10.3385693960
 C         0.2623948873        4.3904501300      -10.7030179885
 C         0.5678458309        3.5718804873       -8.2796640081
 C        -1.4188921580        9.9765238071       -4.4754865409
 C        -3.4135273925        8.3051724006       -4.7288378103
 C        -2.1013424405       12.0938946497      -11.9477612854
 C        -4.2025281093       11.2328063885      -10.9659750941
 C        -1.7598483633        5.0568827868      -15.3474875342
 C        -2.6488319941        7.2655646893      -16.3580149650
 C        -7.8956907641        3.9019522225      -13.2802672414
 C        -7.1496229778        3.8164982209      -10.9096397032
 H        -5.9578019278        2.0331343896      -14.2420245574
 H        -6.7228449732        1.2207852493      -12.9193436572
 H        -4.9547699947        1.0796690367      -13.1915408232
 H        -7.0396399264        7.0532239514      -13.5643154671
 H        -6.6751508455        5.7007940122      -14.5952260928
 H        -4.5111441192        7.7950122115      -13.5579074263
 H        -5.1483482624        7.7842722586      -15.1077253026
 H        -1.3934962278        9.0809739887      -14.7531814210
 H        -0.1345020964        8.0277736743      -14.3292777774
 H        -0.4465940163        9.9004759758      -12.5438895220
 H        -1.0861535106        8.2667947516      -11.9430347670
 H        -3.4478093404       11.6275095437       -8.6462231413
 H        -1.8719456049       12.4277541258       -8.8957776917
 H        -1.4560426542       11.6255853177       -6.7863125291
 H        -0.7951592695       10.1984232166       -7.6532532620
 H        -2.4805630943        7.5817411793       -7.9292323440
 H        -2.7739407552        6.2178199684       -6.7349325772
 H        -0.5367501925        5.5555745236       -6.8349600649
 H        -0.0634103611        6.7132361366       -7.9977683021
 H        -2.3487322249        2.1515551859       -8.0411772965
 H        -0.9123334696        1.3837018217       -8.0929491159
 H        -1.3022596717        0.0185395814      -10.0551017319
 H        -3.0660897031        0.6868255951      -10.2592756495
 H        -2.6638079551       -4.8300743873       -9.1483214971
 H        -1.3753910924       -3.9921266311       -8.0651458560
 H         0.2381912609       -4.3271369283      -10.1873918375
 H        -1.0122421043       -5.4021456512      -10.6898662336
 H         3.0936090707       -7.4713633957       -6.7056018988
 H         3.5458463902       -7.1615516314       -8.3688105950
 H         4.7154930952       -9.4499463962       -7.9210974624
 H         3.2765797091      -10.0868997816       -8.4023750393
 H         1.2710387961      -11.1194228221       -5.1429412653
 H         1.5708758307      -12.5816836024       -4.1587029857
 H        -0.7827125328      -12.2904377056       -4.7386009238
 H        -0.0912241584      -13.7453087083       -5.5829342343
 H        -4.3040082850      -12.8724698613       -8.5550363996
 H        -3.4531794071      -13.3729535546       -9.8946475565
 H        -5.4350545827      -11.7303307883      -10.4624000567
 H        -3.9137083886      -11.1132685964      -11.1238284075
 H        -7.6112176106       -7.3278003471       -9.5464365937
 H        -9.0839718488       -8.1951155455      -10.1397246115
 H        -8.4603079894       -6.1781751766      -11.5961507083
 H        -8.8393336394       -7.7328647161      -12.4514117496
 H        -9.4051254377       -5.8988691879      -13.9417781927
 H        -9.0730862002       -5.5222940644      -15.6029453112
 H        -9.4750773688       -3.2019263434      -14.9770756723
 H        -7.9962742011       -3.2284318683      -14.1216525116
 H        -8.5545532467       -2.2059545031      -10.7408263995
 H        -7.9355052619       -0.5573567956      -11.0354689039
 H        -7.2024813761       -1.9588575486      -11.6409978149
 H       -11.9128674581       -2.4752757155      -14.1409132518
 H       -10.6637112623       -1.5040856857      -14.7384387924
 H       -11.8180176334       -0.7942898758      -13.5657259424
 H       -11.6661757545       -3.1928158990      -11.2597912524
 H       -11.9701635818       -1.4543260758      -11.2702479821
 H       -10.5545767853       -2.2338559661      -10.4608293437
 H        -4.9574651206       -7.4011001171      -15.5856127866
 H        -4.7610594029       -8.1154017120      -14.0295544588
 H        -4.6849918745       -6.3410185036      -14.0075875095
 H        -7.7084492190       -7.8795695248      -15.8558963897
 H        -8.5998124341       -8.3837300928      -14.4590577280
 H        -6.9959928613       -9.1008045846      -14.8804126526
 H        -7.9133781883      -10.4229377642       -8.2606950698
 H        -6.3520583995      -10.4722207861       -7.3397991160
 H        -6.6101109171      -11.5085088811       -8.8229851462
 H        -6.6696975370       -7.7524594189       -7.8038456627
 H        -5.5256893384       -7.2583848583       -9.0028714541
 H        -5.0618125280       -8.2912424357       -7.6246091588
 H         0.2209069424      -14.0919067525       -8.4167088882
 H        -0.3903859516      -13.2104677405       -9.6787426789
 H        -1.2343447322      -14.6894539303       -9.3878228410
 H        -1.9315227278      -14.5230375114       -6.6169874689
 H        -3.0970932966      -14.5757930745       -7.9205066434
 H        -3.2928768881      -13.3355977040       -6.7726183725
 H         4.1534053707      -11.7825158234       -8.2725541621
 H         4.8172894086      -13.1352860530       -7.3943072922
 H         5.6408306919      -11.4551320112       -7.2299311176
 H         3.8645391308      -11.8101147873       -3.8795995290
 H         5.3668726438      -11.1652472096       -4.6808903353
 H         4.9116162556      -12.8821139267       -4.6387506966
 H         2.6686649704       -5.1212618902       -7.2314311779
 H         1.4153540418       -4.2320190821       -7.8945446671
 H         2.5757755485       -5.0624190241       -8.9954060847
 H         1.1036011992       -6.8114409567       -6.0049573517
 H        -0.6182491601       -6.9673459464       -6.5731339181
 H         0.1175337861       -5.3663091657       -6.0773688838
 H        -4.7941886902       -2.2871383688       -7.6379440833
 H        -3.3746784402       -3.1444079463       -7.2316067793
 H        -4.2414303818       -3.8498395430       -8.3877688599
 H        -3.6673729662       -1.1754030665      -11.1632132836
 H        -4.9552437651       -1.3437686407       -9.9643480943
 H        -4.2865994372       -2.5911451142      -10.8790194263
 H         1.0057083653        5.1977578476      -10.6314808269
 H        -0.3043198197        4.5828071268      -11.5745996575
 H         0.9123781118        3.5620610520      -10.9484955039
 H         1.3479776731        2.8889085463       -8.6471748983
 H         0.1695490836        3.1249285330       -7.4190740067
 H         1.2392561417        4.2561968193       -7.7668748268
 H        -0.4290676086        9.4767760649       -4.3062666485
 H        -2.0536219085       10.1595576851       -3.6322245279
 H        -1.2629267663       10.9774732377       -4.9549158550
 H        -3.5971813032        7.2968840228       -5.0137917038
 H        -4.2926162730        8.8453654769       -5.0069607172
 H        -3.3330864580        8.3967830751       -3.6961961606
 H        -2.1032787357       12.8594196176      -11.1651324780
 H        -2.6802400156       12.4975201005      -12.7980022663
 H        -1.0890452634       12.0022131384      -12.3047563481
 H        -4.5031709110       10.5744032122      -10.1421621213
 H        -4.7322506693       11.0791420265      -11.9236658857
 H        -4.2082599734       12.2774811668      -10.5984193107
 H        -1.7326467742        4.4690046407      -14.5063877821
 H        -0.7778239734        5.2260155109      -15.7756442835
 H        -2.3297070548        4.5283120929      -16.0415571452
 H        -3.0603297793        8.2722227708      -16.1009655814
 H        -3.3033365636        6.7059583014      -17.0804169116
 H        -1.7168760907        7.3489902445      -16.7705591499
 H        -7.6366179062        3.9001545864      -14.3274806894
 H        -8.6253725181        4.7110008877      -13.1789883276
 H        -8.4003267950        2.9622852212      -13.1131125547
 H        -6.3828822857        3.9539078311      -10.2010622331
 H        -7.5588794588        2.8487255177      -10.8295793462
 H        -7.8558910817        4.5645781266      -10.5862277932
 Na       -3.1065924529        4.8701375373      -11.5581771597
 Na       -1.3396348103       -9.1115820621       -8.4256671080
