232

 C        -5.8204839682        1.7451607424      -13.3397037136
 C        -5.5950498424        3.0745828395      -12.6537605782
 O        -4.5120800516        3.1512159960      -12.1033056154
 C        -6.6831038687        4.1657749111      -12.3559944962
 C        -5.9595640043        5.5602290071      -12.5189396193
 O        -5.2418972815        5.9818161315      -11.5892174744
 C        -6.2719689546        6.4538987876      -13.7954272228
 C        -4.9489055480        7.1141169570      -14.2800409916
 C        -3.9810454101        5.9491236569      -14.6085644619
 O        -4.3346529749        4.8409671074      -14.1985135343
 C        -2.5883381512        6.1991266741      -15.1845547501
 C        -1.8795928961        6.9685096609      -13.9032843191
 O        -1.9425962344        6.4056187703      -12.7962836555
 C        -1.1326277226        8.2935567224      -13.9741502106
 C        -1.1727263836        9.1910198660      -12.7590624622
 C        -2.5755458460        9.7485815772      -12.4123999107
 O        -3.5050566629        9.2699030193      -13.0659187695
 C        -2.6787167353       10.9079552905      -11.3193702524
 C        -1.9946911033       10.4351684273       -9.9615368089
 O        -1.3953717776        9.4353696052       -9.7674933606
 C        -2.2691496674       11.3246825527       -8.7218323944
 C        -1.7236457946       10.9952864486       -7.3255213135
 C        -2.7839957154       10.1429343969       -6.5894671363
 O        -3.9743601248       10.2316877853       -6.8005855820
 C        -2.2412972660        9.1528796880       -5.4499398166
 C        -1.3526182897        8.0560128858       -6.1308119566
 O        -0.1530058615        7.9807479981       -5.8637068904
 C        -1.8956435435        7.0570839835       -7.0907566203
 C        -0.9590167723        6.0792926978       -7.6520766385
 C        -1.3507613130        5.3365965852       -8.8985000410
 O        -2.4391631752        5.5164992256       -9.4104592587
 C        -0.3935702694        3.9768153246       -9.3121078074
 C        -1.4438421150        2.8107679565       -9.6942985310
 O        -1.9467054973        2.8481967731      -10.8024445529
 C        -1.7161144243        1.6790749646       -8.6842078011
 C        -2.2544959633        0.4412033128       -9.3965709209
 C        -2.8210645185       -0.6496274479       -8.5012855586
 O        -3.0325193481       -0.3536147831       -7.3592720782
 C        -3.1602802253       -2.0998659713       -9.0807110174
 C        -1.8328347487       -2.8319988087       -9.6059959628
 O        -1.0599877555       -2.3832667272      -10.4488877055
 C        -1.5273299313       -4.2551843969       -9.0338596419
 C        -0.4712662848       -4.9569524368       -9.8112402728
 C        -0.2157817429       -6.2994438738       -9.1566929778
 O        -0.9835596351       -7.2403505390       -9.2388690742
 C         0.8939002217       -6.4079181473       -8.0251825237
 C         1.6651934450       -7.8174699093       -8.1033099157
 O         0.9978907014       -8.7576321337       -8.3761568101
 C         3.1966383535       -7.9799295150       -7.6426104074
 C         3.7047563586       -9.3644151399       -7.6785644594
 C         3.5838489111      -10.0135663569       -6.2719905270
 O         3.3264126965       -9.3275631360       -5.2852525212
 C         3.8504896615      -11.5629875026       -6.2054064612
 C         2.3501781050      -12.2507009307       -6.3347137858
 O         2.1146823383      -12.8994265534       -7.3277636151
 C         1.2730608663      -12.1686447139       -5.2084229204
 C        -0.0882054933      -12.7417368402       -5.7321029437
 C        -0.7754551042      -11.9571471005       -6.9507943357
 O        -0.6918376765      -10.7545259825       -7.0487589630
 C        -1.5447471898      -12.8653806548       -7.9053998763
 C        -2.3912256013      -12.1097073109       -9.0599280416
 O        -1.7779973357      -11.2316963219       -9.6222958647
 C        -3.9331508448      -12.3922065696       -9.3112260881
 C        -4.4244418943      -11.3248053119      -10.2779514939
 C        -4.6674300196       -9.8917544560       -9.6332636318
 O        -3.7148267308       -9.2947448483       -9.1276830323
 C        -6.0669949335       -9.3479662753       -9.1890825911
 C        -7.1064574011       -9.2721990749      -10.3122171127
 O        -7.2255085160      -10.2267346826      -11.0829867050
 C        -8.0329800427       -8.0674494819      -10.3687068495
 C        -8.0826358950       -7.3966097989      -11.7564745281
 C        -6.7022877823       -7.3230505324      -12.5510615561
 O        -5.6475960052       -7.6202791081      -12.0592516053
 C        -6.6829423115       -7.0808908155      -14.0977180412
 C        -7.1768858667       -5.5109557557      -14.3616705761
 O        -6.3858307054       -4.5928572561      -14.3764547874
 C        -8.5957369283       -5.3097647734      -14.6488071071
 C        -9.1233577899       -3.8809554417      -14.4063616033
 C       -10.0295642455       -3.7102007569      -13.1399842376
 O       -10.4301790547       -4.6314214715      -12.4032244191
 C       -10.4222683441       -2.2806421419      -12.7142664449
 C        -9.1678757796       -1.4325644482      -12.5714701749
 O        -8.7639841988       -0.6811170502      -13.4492120222
 C        -8.2503981277       -1.7714835419      -11.3693149385
 C       -11.3279249120       -1.6789329414      -13.8385172807
 C       -11.2505012942       -2.3111430022      -11.4487995125
 C        -5.1733708868       -7.2138527185      -14.5257475531
 C        -7.6231670747       -8.1342706419      -14.6398797342
 C        -6.7708745078      -10.4036147259       -8.3386530130
 C        -6.0186090310       -8.1125389611       -8.3195597575
 C        -0.4247297913      -13.6082001288       -8.7194500374
 C        -2.5103900566      -13.8042641534       -7.0725636400
 C         4.7549522505      -12.1111045916       -7.3532431296
 C         4.4832107496      -11.8549763809       -4.7679299252
 C         1.8443086153       -5.2591414999       -8.2184958841
 C         0.2016379103       -6.3620257697       -6.6508426590
 C        -3.9506703939       -2.8155281545       -8.0073725147
 C        -4.1730187602       -1.9160600584      -10.2660516988
 C         0.3688274877        4.3731837050      -10.5715313241
 C         0.6168072411        3.7206248211       -8.1576041937
 C        -1.2995920886        9.9632350143       -4.4815986497
 C        -3.4519408196        8.5958619774       -4.6115037817
 C        -2.0527935632       12.2397519000      -11.8842813159
 C        -4.1551210632       11.0946142572      -11.0363429947
 C        -1.7198984730        4.8588638937      -15.3117645950
 C        -2.6826256647        7.1069694031      -16.4367923451
 C        -7.9581840398        4.0034971843      -13.2735215793
 C        -7.0998102177        3.9601525572      -10.8838032246
 H        -6.6951894334        1.7973599370      -14.0017847256
 H        -6.0118626534        0.9207350116      -12.6392527497
 H        -4.9554325131        1.5060015903      -13.9071146256
 H        -6.9629366702        7.2037238465      -13.4615632692
 H        -6.8081912840        5.9008757877      -14.5840490313
 H        -4.6788710509        7.8649533146      -13.5455854867
 H        -5.0709685692        7.7368626576      -15.1900045451
 H        -1.3039053434        8.9825180929      -14.8068069362
 H        -0.2033004141        7.8891621938      -14.2101738382
 H        -0.5143774567       10.0551689440      -12.8813068037
 H        -0.8532271960        8.5704177656      -11.8842928246
 H        -3.3374256581       11.3040028844       -8.6262590175
 H        -2.0093936256       12.3428754346       -8.9260024547
 H        -1.5821831306       11.9158995275       -6.7963169442
 H        -0.7544042966       10.4654025578       -7.3323096662
 H        -2.2794385693        7.6760522373       -7.8705560407
 H        -2.6913351759        6.4133903002       -6.6665358518
 H        -0.7434925328        5.3774435934       -6.8277764756
 H         0.0213945858        6.5976320082       -7.7666978510
 H        -2.3039712243        2.2062689518       -7.9344328985
 H        -0.8481017440        1.5280097232       -8.0509609360
 H        -1.3667585041        0.1601264793      -10.0995045732
 H        -3.1354002617        0.7408808665       -9.9457528375
 H        -2.3437348060       -4.8302220372       -9.0152347561
 H        -1.1324626969       -4.0135286082       -8.0027157426
 H         0.3815333618       -4.3262187883      -10.0279796163
 H        -0.8977259892       -5.1753942626      -10.8485170905
 H         3.2773973027       -7.4539841617       -6.6697545294
 H         3.5889874475       -7.2638694392       -8.3782306132
 H         4.7284665872       -9.6922057740       -7.8710598162
 H         3.1861368584      -10.0727528336       -8.3670912643
 H         1.1900563416      -11.0114238198       -4.8684580545
 H         1.5610424223      -12.8051500846       -4.3339287065
 H        -0.7331162925      -12.7566743960       -4.8925724908
 H         0.1448429022      -13.7488865852       -6.0327834550
 H        -4.5301729172      -12.4424761606       -8.4568035028
 H        -4.0017667991      -13.4497521417       -9.7163712545
 H        -5.3624430889      -11.5967824338      -10.7200031492
 H        -3.6850303111      -11.0704345127      -11.0731884285
 H        -7.7371026287       -7.4812621296       -9.5234051148
 H        -9.0727775369       -8.3416290692      -10.1672985859
 H        -8.5305774090       -6.3355631829      -11.6510707672
 H        -8.7983812355       -7.9772277336      -12.4444052998
 H        -9.3141174188       -5.9381836722      -14.0564363545
 H        -8.7395671052       -5.4943837062      -15.7814880198
 H        -9.6928682147       -3.5589650475      -15.2520429230
 H        -8.3060227252       -3.1522131909      -14.3814612056
 H        -8.7947861227       -2.4344218820      -10.7565722131
 H        -7.8887679457       -0.9392029294      -10.8025975093
 H        -7.3328220843       -2.3697927097      -11.5675695070
 H       -12.0853051174       -2.4127094277      -13.9990166633
 H       -10.8515523227       -1.4917059778      -14.8186650401
 H       -11.8677375221       -0.7455602078      -13.4926809223
 H       -11.9680623866       -3.1547664709      -11.5035032107
 H       -11.7824393519       -1.4182910219      -11.3450167468
 H       -10.7428168272       -2.5151476151      -10.5450133343
 H        -5.0191540764       -7.2623371161      -15.5947728862
 H        -4.7703576063       -8.1301151984      -14.2207196150
 H        -4.6820041898       -6.4134646250      -14.0275204330
 H        -7.4401839337       -8.2733282464      -15.7570578950
 H        -8.6614401559       -7.9884545550      -14.5414538684
 H        -7.3805442104       -9.0710330265      -14.1904388646
 H        -7.7647226113      -10.0340284800       -8.2018793210
 H        -6.2713294864      -10.4837523706       -7.3670426929
 H        -6.8151612458      -11.3069614297       -8.9076514859
 H        -6.7904929167       -8.0422578279       -7.5871446007
 H        -5.9641587133       -7.1937609552       -8.8727903053
 H        -5.1126293007       -8.2141975756       -7.6595101084
 H         0.4905140110      -13.8332826748       -8.1845607279
 H        -0.0397437765      -13.0178804576       -9.5974426739
 H        -0.8951173195      -14.4853985690       -9.1789348895
 H        -2.0071264273      -14.1543596136       -6.2425036251
 H        -2.8154130367      -14.7099832827       -7.6462757310
 H        -3.3921716073      -13.1975287989       -6.8759719351
 H         4.1551070610      -12.1369401320       -8.3054946740
 H         4.9853750952      -13.2099935190       -7.2570742191
 H         5.7243858472      -11.5171373818       -7.5086903909
 H         3.6340176443      -11.8565489158       -4.0153842142
 H         5.2509548102      -11.1248694868       -4.5288002967
 H         4.8883321156      -12.8508848840       -4.6218675417
 H         2.7327020138       -5.3821304609       -7.5937531397
 H         1.3554628612       -4.3967027440       -7.8468145037
 H         2.1570516717       -5.1181013471       -9.2416802330
 H         0.9380611470       -6.6980481181       -5.8389724860
 H        -0.6590899379       -7.0733715192       -6.7599783553
 H        -0.1820928145       -5.3873214418       -6.3252960668
 H        -4.7051563809       -2.2028712092       -7.6488575325
 H        -3.3771230092       -3.1788496516       -7.1321208734
 H        -4.3745013503       -3.7129156841       -8.3260523334
 H        -3.6688149541       -1.2924898950      -11.0088371173
 H        -5.0605204327       -1.4428877807       -9.8980866693
 H        -4.3608863462       -2.7050690122      -10.9369798595
 H         1.0118734332        5.2148652043      -10.4166433079
 H        -0.2713034509        4.6746990980      -11.4273630588
 H         1.0358675994        3.6264717346      -11.0249099333
 H         1.3757226472        2.9926948151       -8.3708491829
 H         0.2293032039        3.4259061685       -7.1725756580
 H         1.2864871998        4.4933407785       -7.8107730966
 H        -0.5709533888        9.1915217259       -4.0389094999
 H        -1.9775502611       10.4749187522       -3.7555736986
 H        -0.7729445824       10.7118984517       -5.0699575345
 H        -3.8599286598        7.6483454147       -5.0497424149
 H        -4.3850860169        9.2639462237       -4.5965737723
 H        -3.0867616000        8.3820261786       -3.6098606654
 H        -2.0647658836       12.9836112876      -11.1572816622
 H        -2.4856541458       12.6446824350      -12.8304221894
 H        -0.9937576437       12.0373679173      -12.1056684915
 H        -4.5373242252       10.1036996833      -10.7482852039
 H        -4.5652443874       11.4239069781      -11.9770929758
 H        -4.2410901111       11.8298708896      -10.2202640628
 H        -1.5589890433        4.3991233079      -14.3034395549
 H        -0.8164017043        5.0225118715      -15.9118839751
 H        -2.3368898062        4.1278475802      -15.8194613090
 H        -3.2713766596        7.9497157202      -16.1284861330
 H        -3.1748490641        6.5781767612      -17.2574037970
 H        -1.6684737557        7.3908884141      -16.7890265634
 H        -7.7235417634        3.9699545164      -14.3295513983
 H        -8.7846431541        4.6966945192      -13.1565467154
 H        -8.3443370106        3.0039006847      -13.0123169602
 H        -6.1776573632        3.8765755326      -10.2376723341
 H        -7.7435781965        3.1042990556      -10.7889824294
 H        -7.5806014000        4.7770580635      -10.4528499639
 Na       -2.9912997790        4.9101690707      -11.4252873368
 Na       -1.4667495283       -9.2323925645       -8.5165123973
