232

 C        -6.4475932413        2.2789846846      -13.8761756011
 C        -6.0023179681        3.2767666713      -12.6792884748
 O        -4.9593388794        3.0464777162      -12.1492160966
 C        -6.8713515626        4.5416609848      -12.2083692269
 C        -6.0210650868        5.8152069139      -12.5660367633
 O        -5.0195203998        6.0779762570      -11.8948718385
 C        -6.3089757139        6.6370952660      -13.7890816134
 C        -4.9448223122        7.0538378674      -14.4135721661
 C        -3.9901121035        5.9041736696      -14.6091626517
 O        -4.3279412535        4.7584943964      -14.5149284691
 C        -2.3970842688        6.1149445749      -14.8895635749
 C        -1.8123924576        6.8329223888      -13.6914203832
 O        -1.8610389129        6.4222363580      -12.5558642935
 C        -0.8358202406        7.9172727403      -13.8723224903
 C        -0.8803147534        9.0333445944      -12.6640327502
 C        -2.3255912934        9.5539064351      -12.5974062216
 O        -3.2305368978        9.4509584571      -13.3741222502
 C        -2.4730701968       10.7644034304      -11.5625818930
 C        -1.8835907455       10.4376895839      -10.1692755609
 O        -1.4619241156        9.2745313406      -10.0019418535
 C        -2.0308685517       11.5251367938       -9.1887703099
 C        -1.6378426825       11.2487457919       -7.7714293197
 C        -2.4751796795       10.0899962015       -7.0948016456
 O        -3.4854375815        9.7397833067       -7.6541072035
 C        -1.9613951825        9.5055491709       -5.6523399677
 C        -1.0743679534        8.2180531139       -6.0202536372
 O        -0.0016469660        8.0853987014       -5.5090715377
 C        -1.8174289769        7.3141971562       -7.0524827636
 C        -1.3239174437        5.8807693774       -7.2239107081
 C        -1.5862299903        5.2339190626       -8.6311900695
 O        -2.5755457724        5.6367771343       -9.2142531803
 C        -0.6125978110        4.0907446704       -8.9607002008
 C        -1.4272665118        2.9106555837       -9.5538864529
 O        -2.1431326106        2.9491103034      -10.5611219357
 C        -1.4185406815        1.5512541980       -8.8092862040
 C        -2.2660209639        0.5096135868       -9.5348151216
 C        -2.7522508684       -0.5381382112       -8.4850573319
 O        -2.9859716553       -0.1983212934       -7.3228702171
 C        -3.1283066911       -2.0007466602       -8.8855778697
 C        -1.7552077709       -2.7235240896       -9.3413319929
 O        -1.0700972915       -2.2108274575      -10.1850652663
 C        -1.3377853562       -4.0675368153       -8.7380743858
 C        -0.3970077355       -4.8434739322       -9.7533391381
 C        -0.1765204127       -6.3383041943       -9.4013067269
 O        -0.7090883225       -7.2588935415       -9.9766540625
 C         0.7563954624       -6.6530879335       -8.1427419309
 C         1.6036266777       -7.9691566926       -8.2942053547
 O         1.0395784011       -9.0288473390       -8.5495425259
 C         3.0867261944       -7.9943912275       -7.9413093965
 C         3.5329740291       -9.4979220709       -7.8801232231
 C         3.6476498553      -10.0101905597       -6.4083802561
 O         3.1844908430       -9.3559127517       -5.5300565661
 C         3.9110189675      -11.6414241119       -6.1388961823
 C         2.5161508801      -12.2161835398       -6.3567493874
 O         2.3092080143      -13.2224141154       -6.9861086141
 C         1.2685586262      -11.6010917402       -5.6902667174
 C        -0.0220276197      -12.4486874315       -5.9616393811
 C        -0.9372367788      -11.9934417830       -7.0784276225
 O        -1.2739585997      -10.8170215377       -7.3105742791
 C        -1.5441585377      -13.1007815928       -8.0611394190
 C        -2.1118993508      -12.1244694170       -9.1350895669
 O        -1.3998316860      -11.4052008001       -9.7965519119
 C        -3.7361671328      -11.9179014045       -9.1184711111
 C        -4.2980773617      -10.7677286117      -10.0015339344
 C        -4.6055841206       -9.5245106855       -9.0602086421
 O        -3.6838162940       -8.8386422040       -8.6459696688
 C        -6.1219147415       -9.2401715163       -8.7252679093
 C        -6.9860316789       -9.2401883254      -10.0982679416
 O        -6.9345640966      -10.2733250049      -10.6951747012
 C        -7.9711980678       -8.0418596056      -10.5273571581
 C        -8.1429427970       -8.1605189700      -12.0656004764
 C        -6.8119745270       -7.5886457576      -12.6679385129
 O        -5.9554172308       -7.3974663975      -11.8160458712
 C        -6.7541665334       -6.9745313754      -14.1168059567
 C        -7.6263693790       -5.6257436857      -14.0844993299
 O        -7.2435931840       -4.7774325251      -13.2956451904
 C        -8.9533161912       -5.3731080352      -14.9401026994
 C        -9.5415163781       -3.9380035292      -14.6522622649
 C       -10.2470275772       -3.8980693308      -13.2708817902
 O       -10.4887563933       -4.9038600787      -12.6798850784
 C       -10.5613624866       -2.4058767409      -12.8729589976
 C        -9.1307870850       -1.8740162278      -12.2956273498
 O        -8.6975082470       -0.8030958593      -12.6574612184
 C        -8.4497339564       -2.7968677534      -11.1804573961
 C       -11.1032777356       -1.6110858173      -14.0473781355
 C       -11.6543326734       -2.5452226887      -11.7596326268
 C        -5.2636326859       -6.6250533271      -14.3347098547
 C        -7.2783095140       -7.9698244579      -15.2109351860
 C        -6.7494064072      -10.5195211669       -7.9300004741
 C        -6.3922686094       -8.0112150721       -7.7811002356
 C        -0.3880304898      -13.8868725383       -8.4760789242
 C        -2.4122134556      -14.0184152763       -7.2206458776
 C         4.9549781003      -12.3375778811       -7.0742781574
 C         4.2372520185      -11.8549009739       -4.5946201546
 C         1.7519368780       -5.4877174555       -7.9612014939
 C        -0.0925648161       -6.8318761330       -6.8869606040
 C        -3.7820491931       -2.7463128592       -7.6765431465
 C        -4.1038932614       -1.8947486384      -10.1066235978
 C         0.3083245811        4.6968927480      -10.1009525223
 C         0.2759398817        3.5643651226       -7.7860592796
 C        -1.2252005855       10.5310893389       -4.8413065476
 C        -3.2336276539        8.8833838892       -4.7984694945
 C        -1.7932772362       11.9691397604      -12.2698955873
 C        -3.9776345389       11.0609503167      -11.2650757715
 C        -1.7275814268        4.7173888377      -14.8977801454
 C        -2.2402876570        6.6726776920      -16.3523377918
 C        -8.3041203111        4.7636292858      -12.7704958227
 C        -6.9030770319        4.2960608214      -10.6877818093
 H        -5.6661663508        1.5937166820      -14.0219748086
 H        -6.7145156543        2.8129694892      -14.7777393942
 H        -7.3858804099        1.7318286715      -13.6853698602
 H        -6.6534753516        7.6685336520      -13.5267218787
 H        -7.0250956713        6.2265429620      -14.4640359085
 H        -4.5215559352        7.6892693280      -13.6413055794
 H        -5.0960020776        7.7421297146      -15.2755507154
 H        -0.9014385033        8.4164271625      -14.8067940196
 H         0.1744906201        7.4945790419      -13.9215183747
 H        -0.3127084376        9.8345569590      -13.1158853596
 H        -0.3806642782        8.6508748133      -11.7811746336
 H        -3.0417443426       11.7487475697       -9.2366905496
 H        -1.5392377548       12.4276465424       -9.5705735396
 H        -1.7866306365       12.1729088230       -7.1417954090
 H        -0.6331545103       11.0601266612       -7.6412806787
 H        -1.6629919434        7.7430955052       -8.0497719747
 H        -2.8693684619        7.2860465507       -6.9608318450
 H        -1.7838248836        5.2334872852       -6.4073714846
 H        -0.2670623676        5.8424397936       -6.9687629381
 H        -1.9669272554        1.6804648246       -7.8649708256
 H        -0.3894788048        1.2301022708       -8.4852288373
 H        -1.8441559700        0.0508342501      -10.3959537400
 H        -3.2429407969        0.9257467546       -9.9391981740
 H        -2.2016314965       -4.7075759736       -8.4126592653
 H        -0.7813303536       -3.8457014243       -7.8760448803
 H         0.6039463630       -4.4214799101       -9.8575444515
 H        -0.9040615122       -4.7173420813      -10.7382818170
 H         3.1791848522       -7.4089834024       -7.0074677589
 H         3.8174435427       -7.5005824421       -8.6185450354
 H         4.5188530756       -9.5473379935       -8.4362026691
 H         3.0308989539      -10.3600048423       -8.3532899308
 H         1.0459162768      -10.5872680714       -6.0632513823
 H         1.4469361067      -11.4263154491       -4.5418699547
 H        -0.6419915578      -12.5483318508       -5.1243801108
 H         0.3680928011      -13.4629399095       -6.0857478220
 H        -3.8106071161      -11.7508060991       -7.9476193052
 H        -4.2575150395      -12.7966807269       -9.4143105077
 H        -5.2067176847      -11.1030206959      -10.5760987593
 H        -3.5571585734      -10.5062537982      -10.7204064995
 H        -7.5633350264       -7.1236190400      -10.1350305515
 H        -8.8671339842       -8.1693474311       -9.9424986436
 H        -9.0410030210       -7.5404943922      -12.4258854430
 H        -8.2560913305       -9.2567217605      -12.3607731242
 H        -9.8046417817       -6.0484640714      -14.5556593116
 H        -8.8759409829       -5.4053059846      -16.0880139580
 H       -10.1886079985       -3.6050080904      -15.4942091562
 H        -8.7194920681       -3.2994822003      -14.6897221922
 H        -9.2334253444       -3.3247302950      -10.6038638261
 H        -7.9778320134       -2.2679993829      -10.3617310680
 H        -7.7349060616       -3.4619686897      -11.5281118003
 H       -11.9858985283       -2.2015870909      -14.4743132831
 H       -10.2859029715       -1.4897182402      -14.7631500073
 H       -11.5106279307       -0.6773503658      -13.8083758832
 H       -12.4781274676       -2.0412985613      -12.1260599417
 H       -11.4564373615       -2.0584454200      -10.8082131096
 H       -11.8952931772       -3.5728433805      -11.5918955377
 H        -5.0918525445       -6.4861247540      -15.3662837182
 H        -4.7164733734       -7.5380869643      -14.0248711963
 H        -4.9738786731       -5.7192950157      -13.8174145450
 H        -8.0488842549       -7.6122793002      -15.8105054961
 H        -7.7021745548       -8.7758435247      -14.6113415822
 H        -6.6272621628       -8.5016049375      -15.9185168312
 H        -7.8413050531      -10.4198170067       -8.1006705904
 H        -6.4908925233      -10.4253901360       -6.9044538343
 H        -6.3812659698      -11.4728131911       -8.3468262065
 H        -7.2869864506       -8.0883690576       -7.1266991471
 H        -6.3861145836       -7.0553703506       -8.3177016948
 H        -5.5594236296       -7.8698302537       -7.1638492374
 H         0.3052087150      -14.3002177291       -7.7184911251
 H         0.2736504605      -13.3501139312       -9.1594481565
 H        -0.7816034361      -14.6812519456       -9.1024350787
 H        -1.8431372486      -14.3594727345       -6.3018649254
 H        -2.8154147718      -14.8617998376       -7.7171541394
 H        -3.1050627759      -13.4014605571       -6.7270164248
 H         4.9008607690      -12.2995540352       -8.2063145609
 H         5.1520546672      -13.3886908395       -6.7840007975
 H         5.9833186202      -12.0100094458       -6.7363392475
 H         4.1018457529      -10.9383779860       -4.0331871291
 H         5.3195599951      -12.0705974518       -4.4571131168
 H         3.7250523546      -12.7177382117       -4.1149410308
 H         2.5032813457       -5.8414626367       -7.3106285701
 H         1.3420809975       -4.5713671958       -7.5193468261
 H         2.1524577135       -5.2003002141       -8.8966834275
 H         0.4064449637       -7.3568630456       -6.0586649276
 H        -1.0224954091       -7.3439526613       -7.1063194176
 H        -0.2243356115       -5.7755171826       -6.4339780354
 H        -4.6770539940       -2.2623177738       -7.3097225902
 H        -3.1319307609       -2.7951503775       -6.8646065752
 H        -4.1522890891       -3.7182492323       -7.9576822323
 H        -3.7975336673       -1.3023754972      -10.9385753099
 H        -5.0695727393       -1.5279396532       -9.8140051858
 H        -4.3400678285       -2.9584759224      -10.4390471624
 H         0.8208835192        5.5933791538       -9.7541358093
 H        -0.2300778302        5.0363416427      -10.9847612980
 H         1.0808657235        4.0454197301      -10.4782329238
 H         0.8704688626        2.7075068914       -8.1082999749
 H        -0.0167157267        3.2105333665       -6.7783238509
 H         1.0146338766        4.3127527532       -7.4874450831
 H        -1.5283688832       10.3776898236       -3.8320829014
 H        -1.6530677718       11.5551211666       -5.0506680446
 H        -0.1540817102       10.4997785890       -5.1557308551
 H        -4.1779685019        9.1241680469       -5.3196623416
 H        -3.2896547193        9.4252783442       -3.8900140052
 H        -3.2045340386        7.7801323438       -4.7670099724
 H        -2.0690757260       12.9358693020      -11.7625877601
 H        -2.1454088301       12.0032971463      -13.2687616178
 H        -0.7074615152       11.9320912308      -12.2415923331
 H        -4.2521074996       10.2546637709      -10.5838503743
 H        -4.5873125925       10.7978915634      -12.1300363892
 H        -4.0400688430       12.0817427407      -10.9770403942
 H        -2.0184892669        4.1294530878      -14.0573843310
 H        -0.6676537762        4.9072404478      -14.8347067944
 H        -1.9406270025        4.2572353680      -15.8738101662
 H        -2.7258462312        7.6288185527      -16.5463957529
 H        -2.7604607783        6.0163776974      -17.0146630355
 H        -1.1751694316        6.6352895770      -16.6597284280
 H        -8.4384894673        4.7553007472      -13.8485802311
 H        -8.7226969572        5.6514061650      -12.3311250277
 H        -8.9624682886        4.0066650077      -12.3812198474
 H        -5.9269047359        4.4643969236      -10.3457014813
 H        -7.1866702932        3.2901827361      -10.4438428734
 H        -7.6392858796        4.9981403388      -10.2080392506
 Na       -3.0677336696        4.7494929190      -11.5181554114
 Na       -1.2774450397       -9.2956488418       -9.2579926796
