232

 C        -6.6360113964        2.6005988430      -13.8107083419
 C        -5.9942276358        3.3373173229      -12.7694563850
 O        -4.9779715285        3.0699784861      -12.1842584861
 C        -6.9046089766        4.5951525381      -12.1339581017
 C        -6.0494927137        5.7640083703      -12.6028570792
 O        -5.0580164891        5.9971895020      -11.9433967238
 C        -6.3162853657        6.6777185885      -13.8197170264
 C        -4.8153884023        7.1197284480      -14.3352739848
 C        -3.9491859791        5.8164024441      -14.6160319672
 O        -4.3799042202        4.6822078322      -14.5202901070
 C        -2.3753045039        6.0307857009      -14.9577819286
 C        -1.7043430004        6.7991183268      -13.6029028690
 O        -2.0910133179        6.3929728864      -12.5391407402
 C        -0.7024722779        7.9726057997      -13.8299843172
 C        -0.8974213290        9.0375037143      -12.6695918064
 C        -2.2623569525        9.6555960720      -12.7061091089
 O        -3.1369713421        9.2304529034      -13.4923187005
 C        -2.4888720707       10.8060511255      -11.6989331515
 C        -1.8251950127       10.3964597572      -10.2230667879
 O        -1.4210834636        9.3081199209       -9.9782751644
 C        -1.9067182139       11.5998317851       -9.1765661937
 C        -1.5742848688       11.2488609565       -7.8302642761
 C        -2.4530164777       10.1733023119       -7.0880050135
 O        -3.4911070032        9.7816242443       -7.6550406779
 C        -1.9696870054        9.5936460322       -5.7970767972
 C        -1.1051568685        8.2353330741       -6.0703463657
 O        -0.0354766320        7.9733556178       -5.5269207759
 C        -1.8047748584        7.3649620583       -7.0635617712
 C        -1.3420847460        5.8673601898       -6.9750927484
 C        -1.6483613450        5.2187855233       -8.4232798238
 O        -2.5845458622        5.5519907110       -9.1410582705
 C        -0.5788986919        4.0869591218       -9.0367590103
 C        -1.4433595173        2.9181680735       -9.5202238446
 O        -2.1418423316        3.0119042436      -10.5004041872
 C        -1.3547800683        1.4768704196       -8.8608548771
 C        -2.2738520023        0.4437793792       -9.4955070330
 C        -2.7784435031       -0.5607368407       -8.4545744919
 O        -2.8813042786       -0.1727602122       -7.3040727785
 C        -3.0630801471       -2.0659129030       -8.8708647999
 C        -1.7573458667       -2.7705358548       -9.3639048887
 O        -1.0802996598       -2.1060768525      -10.1664408451
 C        -1.4123740703       -4.1165306322       -8.7317523458
 C        -0.4542306156       -4.8486998415       -9.6800159800
 C        -0.1955424217       -6.3506878607       -9.3776312529
 O        -0.7264952351       -7.0783092420      -10.1578810002
 C         0.8047574881       -6.6900098664       -8.1014518668
 C         1.6065917990       -8.0586294565       -8.2998487694
 O         0.9449859284       -9.0093117430       -8.6636218752
 C         3.1407355979       -8.1772742097       -8.0108209583
 C         3.6141621203       -9.6092656628       -7.9155640808
 C         3.6221453347      -10.1061032392       -6.4296998471
 O         3.2446230373       -9.2913369958       -5.5821490418
 C         3.8905150920      -11.5181055456       -6.0930499361
 C         2.4431809036      -12.2569325491       -6.3745338199
 O         2.4366557312      -13.2807987062       -7.0132136879
 C         1.1710837543      -11.5487949898       -5.8114663466
 C        -0.1012986567      -12.3752219681       -5.9740631242
 C        -0.9574533697      -11.9296172222       -7.0762046494
 O        -1.2067619446      -10.7298094255       -7.2366860391
 C        -1.5240105794      -13.0895359075       -8.0480173743
 C        -2.1975556709      -12.2124655753       -9.1012047518
 O        -1.4733553314      -11.6241925038       -9.9022196535
 C        -3.6590728266      -11.9086074500       -9.0560996189
 C        -4.0669294919      -10.6573946398       -9.8715727352
 C        -4.5720795260       -9.4998283687       -9.0622349542
 O        -3.8208047875       -8.7037772800       -8.5385670560
 C        -6.1136123261       -9.2403164876       -8.6959819111
 C        -6.9991863859       -9.1645003332       -9.9916370630
 O        -6.9334893850      -10.2037563599      -10.6755410525
 C        -7.9695221866       -8.1473456043      -10.4827392762
 C        -8.1259278345       -8.3413294529      -12.0249510710
 C        -6.8543687493       -7.5720515456      -12.6463573459
 O        -5.8972891451       -7.3883520684      -11.8845338436
 C        -6.8177662797       -6.9958884307      -14.0554549253
 C        -7.7455985969       -5.6582128598      -14.0075418339
 O        -7.5664557516       -4.8601174925      -13.0928712146
 C        -8.8331343200       -5.3813641355      -15.0077841005
 C        -9.5559992980       -4.0893154545      -14.7972156536
 C       -10.2012645607       -3.8869724090      -13.3704598976
 O       -10.5036805326       -4.9040836480      -12.7424093912
 C       -10.5358476849       -2.5218711112      -12.8498189644
 C        -9.2527653409       -1.9408366783      -12.1247177059
 O        -8.7134687837       -0.9208411989      -12.4457207478
 C        -8.5515390514       -2.8479301755      -11.1834570680
 C       -10.9346324841       -1.6716197930      -13.9990326429
 C       -11.7602133912       -2.4851088136      -11.7542775225
 C        -5.2997164237       -6.4733973322      -14.4198340581
 C        -7.1612911225       -7.9595101300      -15.1945167658
 C        -6.6827941279      -10.4593275753       -7.9588234514
 C        -6.2015693412       -8.0337294889       -7.7682758467
 C        -0.3093320048      -13.9820673069       -8.6837893109
 C        -2.3984594708      -14.1295373369       -7.1845231826
 C         4.7472574534      -12.2928663661       -7.0414342774
 C         4.1738697765      -11.6397632090       -4.5887676257
 C         1.7970361000       -5.4321132748       -7.8076085321
 C        -0.2043146926       -6.9166424681       -6.9465364187
 C        -3.7168188145       -2.7408966337       -7.6708166029
 C        -3.9784024208       -1.9449034514      -10.0369045001
 C         0.3158627936        4.6397649695      -10.1186433886
 C         0.1605585209        3.6019888188       -7.8211214934
 C        -1.1153505581       10.5937097616       -4.9341438677
 C        -3.2464320919        8.9691579889       -5.1414216476
 C        -1.7710532097       11.9769149830      -12.3754827119
 C        -4.0047009010       11.1347800107      -11.3808220217
 C        -1.7156119959        4.6306919361      -14.9261832623
 C        -2.0379122883        6.7037783983      -16.2614557883
 C        -8.4089249424        4.7410489554      -12.6674077045
 C        -6.8580976074        4.5389667780      -10.6257949596
 H        -5.9754391755        2.2124246295      -14.5956175217
 H        -7.4349809723        3.2179529702      -14.1904542327
 H        -7.1830229735        1.7509054752      -13.3962863181
 H        -6.9510084247        7.5485754180      -13.8551287538
 H        -6.6568419938        5.9944965607      -14.5927602258
 H        -4.2984950163        7.6570123802      -13.5040741073
 H        -4.8537323501        7.7910599942      -15.1745327806
 H        -0.6311576309        8.3479557960      -14.8368816914
 H         0.3454576655        7.5061421768      -13.6772238049
 H        -0.0249788158        9.6740810615      -12.5844356408
 H        -0.9410443075        8.3594271350      -11.8828789311
 H        -2.8801783972       12.1188260003       -9.2291105151
 H        -1.2113269058       12.3637205166       -9.4581900696
 H        -1.7119449408       12.1325963131       -7.2443308827
 H        -0.4949113979       11.0785121446       -7.6656003598
 H        -1.5650667763        7.7554236862       -8.0807030196
 H        -2.8737745781        7.3705551651       -7.1001419541
 H        -1.9522436630        5.4253804754       -6.1735295793
 H        -0.3156596303        5.6883192847       -6.6540878900
 H        -1.5839625407        1.5465593322       -7.7625165675
 H        -0.3253245183        1.1138412882       -8.9087385697
 H        -1.8336742869        0.0088260576      -10.3198077044
 H        -3.2084848361        0.7716365953       -9.9598982835
 H        -2.4164333523       -4.6708964437       -8.5592758929
 H        -0.9929244380       -4.0143504757       -7.7720864910
 H         0.5730917406       -4.3461952806       -9.6693906324
 H        -0.8376437528       -4.7726845627      -10.6006873219
 H         3.2259039203       -7.6824093934       -7.0279214037
 H         3.8163073890       -7.5622294013       -8.6246132769
 H         4.5904264420       -9.7915988422       -8.4463257741
 H         3.0193231600      -10.4361504665       -8.3860909577
 H         1.0613907698      -10.7231628726       -6.4012949055
 H         1.2365793236      -11.0832801438       -4.8048297377
 H        -0.7385522891      -12.3369116398       -5.0783660632
 H         0.1551417927      -13.3945997835       -6.0077076150
 H        -3.7839230674      -11.9065660951       -7.9294417048
 H        -4.1907786891      -12.7761857828       -9.5697677810
 H        -4.7951609180      -10.9283674690      -10.6621994309
 H        -3.1519711146      -10.2878873398      -10.4262558775
 H        -7.6266389737       -7.2117430501      -10.0958743848
 H        -8.8816376269       -8.3426034232       -9.9553562932
 H        -9.0428033407       -7.8656527927      -12.3291075709
 H        -8.1276058390       -9.3858928142      -12.2745724071
 H        -9.7167952578       -6.1118193074      -14.8147422453
 H        -8.5618566692       -5.3735386820      -16.0773103758
 H       -10.2811432456       -4.0542835346      -15.5884062832
 H        -8.8402754952       -3.3293736427      -15.0431407816
 H        -9.1974729434       -3.4196906042      -10.5264921227
 H        -7.8264914177       -2.5094690541      -10.4515844812
 H        -8.0062732763       -3.4891544341      -11.8736757589
 H       -11.6911739699       -2.2159612181      -14.5354689970
 H       -10.0789516202       -1.3705394929      -14.6249298922
 H       -11.4907239733       -0.7678711201      -13.6309643425
 H       -12.5469277326       -1.9963885482      -12.2536639322
 H       -11.5415625592       -1.9437844095      -10.8835333977
 H       -12.0163142528       -3.5179942703      -11.4607956263
 H        -5.1525871470       -6.3037241783      -15.4696260619
 H        -4.6472382717       -7.1084886167      -14.0078041239
 H        -5.2262768295       -5.5149793332      -13.9548724800
 H        -7.9745599867       -7.6965478266      -15.8056183550
 H        -7.3532419871       -8.9977387415      -14.7805522701
 H        -6.3565039249       -8.1431239725      -15.8743821296
 H        -7.7494556978      -10.4638761217       -8.0096886015
 H        -6.3135290051      -10.4554781806       -6.9401528201
 H        -6.2664051007      -11.2976474335       -8.4677266851
 H        -7.1159081964       -7.9815935121       -7.1566368301
 H        -6.0660168396       -7.0893772391       -8.3215761593
 H        -5.3237432434       -7.9765260143       -7.1286495829
 H         0.4976571312      -14.2311100065       -7.9893928824
 H         0.1980753108      -13.4783732277       -9.4691679579
 H        -0.7094034771      -14.9140754304       -9.2083400972
 H        -1.9902641134      -14.4731942614       -6.2203182160
 H        -2.5371409028      -14.9610563804       -7.8807744788
 H        -3.3882022919      -13.7233955985       -6.8326337146
 H         4.3916454108      -12.3255028071       -8.0855699113
 H         4.8908922555      -13.3231609480       -6.6551932524
 H         5.7858295425      -12.0393438501       -7.0689768609
 H         3.7885466956      -10.8617526187       -3.9476103890
 H         5.2942275989      -11.5706683597       -4.4573747063
 H         3.9773321796      -12.6761066275       -4.2487109604
 H         2.3138445140       -5.8358469306       -6.9616195728
 H         1.3166656171       -4.5469805028       -7.4222935593
 H         2.4632299939       -5.1177507480       -8.6131514656
 H         0.1548127103       -7.4284021336       -6.0682473889
 H        -1.1238863587       -7.5069690946       -7.3349662033
 H        -0.4624077513       -5.9237915330       -6.6053529850
 H        -4.5127261095       -2.1198510539       -7.3067754690
 H        -3.0383253497       -2.7871069736       -6.8896141913
 H        -4.2125451683       -3.6602063742       -7.9213882944
 H        -3.5833649706       -1.2347036264      -10.8791520966
 H        -5.0079643909       -1.5107918597       -9.7980825195
 H        -4.2396094557       -2.9312211064      -10.3895070311
 H         0.8989025961        5.5220390289       -9.7400070060
 H        -0.0657167929        4.9354585533      -11.0690969235
 H         1.0934865639        3.9109577668      -10.3489067236
 H         0.6447851115        2.6011129279       -7.8654494205
 H        -0.4206730505        3.4492966455       -6.9614643202
 H         0.9159511352        4.3172267427       -7.4340092902
 H        -0.8574969175       10.0714184793       -3.9911193646
 H        -1.6522691720       11.4792471223       -4.6184217528
 H        -0.2811210752       10.7907678485       -5.6646574567
 H        -4.1985138586        9.1119262962       -5.7844956426
 H        -3.3881492067        9.6623009994       -4.2375081941
 H        -3.1967136360        7.8704560168       -4.9604257900
 H        -1.6520864555       12.8437812542      -11.6913218770
 H        -2.3178363773       12.2812092966      -13.2513902308
 H        -0.7724016582       11.6864572100      -12.6177967765
 H        -4.2405095126       10.5080530204      -10.5658695513
 H        -4.6729567158       10.7908026824      -12.1546084445
 H        -4.0195651375       12.2060295335      -11.2302651952
 H        -1.8260588483        4.2360677870      -13.8985278364
 H        -0.5755979554        4.8477035642      -15.0432023406
 H        -2.0644314817        3.9686777626      -15.7622656370
 H        -2.5181234493        7.7021329414      -16.4366329316
 H        -2.4140477378        6.0978034154      -17.1179479850
 H        -1.0198902080        6.7525091407      -16.3353030337
 H        -8.5230368429        4.5488828862      -13.7292609009
 H        -8.8673767119        5.7116478519      -12.4322579171
 H        -9.0632210909        4.0355196447      -12.1856354062
 H        -5.8226920620        4.2647113277      -10.3639620718
 H        -7.4655235171        3.6618800984      -10.2934346403
 H        -7.2460323326        5.4937843424      -10.0968294051
 Na       -3.0829730249        4.7324597711      -11.4197250612
 Na       -1.3997772653       -9.2192681440       -9.2316790637
