232

 C        -6.8158817711        2.6865061533      -13.8600799188
 C        -6.2032832486        3.4141660081      -12.7062707140
 O        -5.0529822682        3.2082252187      -12.3099636163
 C        -6.8906904449        4.7153320173      -12.0290980431
 C        -5.9474691447        5.8269455683      -12.5934712937
 O        -4.9763569920        6.0535701312      -11.8973499371
 C        -6.1355366751        6.5172658580      -13.9183713538
 C        -4.7100784688        6.9926234923      -14.3805241067
 C        -3.8423597587        5.8093089577      -14.6043039492
 O        -4.4316119500        4.7191073382      -14.5771175426
 C        -2.2866903388        5.9743639239      -14.9006784921
 C        -1.7385491030        6.8043606269      -13.6958977741
 O        -2.1223882218        6.4918253188      -12.5419079899
 C        -0.6998796292        7.8408483133      -13.7770953033
 C        -0.8984721311        8.8255734798      -12.6606046354
 C        -2.2129195021        9.5782044380      -12.7571552570
 O        -3.0381071946        9.1658456529      -13.5885648596
 C        -2.4368258721       10.8120136557      -11.7545412774
 C        -1.8558674405       10.4973886602      -10.3414642263
 O        -1.3897316635        9.4672386451       -9.8730329329
 C        -1.7479357093       11.7052657178       -9.2750643718
 C        -1.3816694877       11.3111425464       -7.8487386111
 C        -2.4173227741       10.2290223320       -7.2261937681
 O        -3.4580510431        9.9216564384       -7.7575342083
 C        -1.9695141367        9.5357988619       -5.8384919074
 C        -1.1858666504        8.2564097035       -6.1726761490
 O        -0.1551097173        7.9715310386       -5.5786711223
 C        -1.7749171421        7.3832383312       -7.2469196051
 C        -1.4206230137        5.8090722739       -7.0780522834
 C        -1.6238332084        5.1674727018       -8.3236164044
 O        -2.5731801567        5.4676813240       -9.0369636007
 C        -0.5771928806        3.9934995952       -8.8156007131
 C        -1.4776686113        2.8026966393       -9.5895704590
 O        -2.1899739093        2.9825903019      -10.5345393483
 C        -1.2787813549        1.4650275159       -8.9617930803
 C        -2.2409609351        0.4692027370       -9.4619677731
 C        -2.6911173528       -0.4984182161       -8.3512455434
 O        -2.7996692867       -0.2238321400       -7.2060956262
 C        -3.0937748983       -1.9643906903       -8.8107080396
 C        -1.7606633103       -2.6559234507       -9.2753046737
 O        -1.0036789565       -2.2449970244      -10.1225554578
 C        -1.4678535664       -4.0997257656       -8.8296392376
 C        -0.3477288456       -4.7026068600       -9.7359778651
 C        -0.0119670833       -6.2239402045       -9.4006946459
 O        -0.6206828545       -7.0921648398      -10.0128339435
 C         0.7782234019       -6.7012204919       -8.1588154510
 C         1.4748289307       -8.0789192560       -8.3941597613
 O         0.8837621892       -9.0634085338       -8.7928892732
 C         3.0125763313       -8.2619611092       -8.1429600629
 C         3.6136949621       -9.6170487291       -7.9874057199
 C         3.4788156218      -10.0963746753       -6.4510907476
 O         3.3683468263       -9.1876342128       -5.6301512964
 C         3.7802224302      -11.5627421226       -6.0721356874
 C         2.3352672953      -12.2818680922       -6.3632192197
 O         2.3508532442      -13.3383677861       -6.9682225338
 C         1.1190230214      -11.4991887970       -5.8998753376
 C        -0.1301479917      -12.3332396840       -5.7651266873
 C        -0.9196694193      -11.9621273648       -7.0024469107
 O        -1.1260760366      -10.8102837859       -7.2112741226
 C        -1.4753839920      -13.0721857733       -8.1102634370
 C        -2.2504727399      -12.3035379254       -9.1885853916
 O        -1.5385594777      -11.8677012456      -10.0744510580
 C        -3.7715654949      -11.8782116960       -8.9993902767
 C        -4.0559806186      -10.5880446368       -9.7794430912
 C        -4.5179621758       -9.4220172577       -8.9554400877
 O        -3.7013658657       -8.5973282891       -8.5331332090
 C        -6.0517241460       -9.2418474686       -8.6055078336
 C        -6.9419833404       -9.3149769903      -10.0397100138
 O        -6.8304826260      -10.3177471107      -10.7193141845
 C        -8.0423095980       -8.2281487317      -10.4557093007
 C        -8.0091107360       -8.1442467014      -11.9796128444
 C        -6.8028039530       -7.4745401455      -12.5665009204
 O        -5.7574462705       -7.4365606800      -11.9951791723
 C        -6.8953811599       -6.9256926141      -14.0807927913
 C        -7.8549987985       -5.7612481592      -13.9305461371
 O        -7.7243546899       -5.0538979880      -12.9644513302
 C        -8.7781405468       -5.5125676482      -15.0770079607
 C        -9.6159849002       -4.1852437098      -14.8593906235
 C       -10.2198027327       -4.0352387518      -13.4330729889
 O       -10.5182284023       -5.0337677268      -12.7750070340
 C       -10.5620246799       -2.5010750176      -12.8932053283
 C        -9.2791978889       -2.0453743302      -12.0587068515
 O        -8.8276536240       -0.9413404198      -12.2882438650
 C        -8.6865411699       -2.9301861690      -10.9724845887
 C       -10.7975749539       -1.4318630044      -14.0574234997
 C       -11.7058739175       -2.5689063613      -11.8032247061
 C        -5.4716062292       -6.2480776996      -14.3771583338
 C        -7.1691117686       -8.0382298010      -15.1349972927
 C        -6.5920934908      -10.5334695990       -7.8645067867
 C        -6.1401533162       -7.9284986505       -7.8119031421
 C        -0.3461640917      -13.9001021771       -8.8675734712
 C        -2.3713823990      -14.0283482808       -7.2955659650
 C         4.7970782928      -12.1963496082       -6.9640280201
 C         4.1702775343      -11.5378145143       -4.6161686385
 C         1.7071545805       -5.6028788213       -7.6733872319
 C        -0.2757303664       -6.9848478110       -7.0242502170
 C        -3.7196200074       -2.7442107470       -7.6140133987
 C        -4.0308320929       -2.0617062830      -10.0947428822
 C         0.2023117401        4.5751731443       -9.9964585191
 C         0.3298941557        3.6099589545       -7.6636978833
 C        -1.0677174082       10.5032586280       -4.9660509622
 C        -3.2702559401        9.1823404230       -5.0953342524
 C        -1.7637529321       12.0917504885      -12.3668906089
 C        -4.0082894169       11.1374588718      -11.6429064868
 C        -1.6845759880        4.5037085715      -14.8977476907
 C        -1.9668911514        6.7904119189      -16.1202701256
 C        -8.3892095411        4.6857718499      -12.5088569065
 C        -6.8879292441        4.7503544299      -10.5233670680
 H        -6.0539474493        2.8502152370      -14.6856405856
 H        -7.8119590429        3.0143563118      -14.1583150745
 H        -6.8649842935        1.5983100639      -13.7353456325
 H        -6.6494998553        7.4621706478      -13.8796850143
 H        -6.6150746037        5.9305708880      -14.7398028631
 H        -4.3129969889        7.6407263566      -13.5851250491
 H        -4.7934739330        7.5739685321      -15.2957235195
 H        -0.7187878030        8.4845163755      -14.7151385259
 H         0.2912426007        7.3229121706      -13.8683029175
 H        -0.0903111373        9.5094627929      -12.8815624114
 H        -0.7684159245        8.3285631859      -11.7118533896
 H        -2.7054091036       12.3406844638       -9.2561598034
 H        -0.9977138740       12.3883410745       -9.6799761232
 H        -1.2727552227       12.1296374768       -7.1814997724
 H        -0.3575953512       10.7992008561       -7.7244334058
 H        -1.4710949090        7.7045661935       -8.2582202920
 H        -2.9025995146        7.4682480282       -7.3770661060
 H        -2.0799293171        5.3833608223       -6.3662012178
 H        -0.4330729547        5.5864481010       -6.6692021882
 H        -1.3531458786        1.6730937280       -7.8769426585
 H        -0.2725819245        1.1155480223       -9.1465912560
 H        -1.7621673033       -0.0194823873      -10.3688186007
 H        -3.1186298623        0.7570377417       -9.9290277116
 H        -2.3829524095       -4.6416955287       -8.8922706829
 H        -1.1504217850       -4.2808080066       -7.7232360455
 H         0.5390860931       -4.0987807625       -9.6696763802
 H        -0.7261756607       -4.6658404745      -10.7858127187
 H         3.3665702197       -7.5749834158       -7.3756223050
 H         3.4131965070       -7.7856059796       -9.0358229853
 H         4.6457758105       -9.6970791571       -8.2630591039
 H         3.1491997950      -10.3671618825       -8.6315357611
 H         1.0291610415      -10.5619827266       -6.4620240874
 H         1.3351468127      -11.1030505758       -5.0044532116
 H        -0.6241680504      -12.0217038586       -4.7920526976
 H         0.1283734121      -13.3625191842       -5.5438937384
 H        -3.8808351276      -11.8144681813       -7.9805286389
 H        -4.3493388130      -12.7559244771       -9.4772372756
 H        -4.7126201684      -10.7531872305      -10.6172994021
 H        -3.0896863373      -10.2014570916      -10.2922988249
 H        -7.8733061037       -7.3385219160       -9.8406135241
 H        -9.0425272322       -8.6241940664      -10.1982481298
 H        -8.8650795845       -7.7012643862      -12.3615842850
 H        -7.9568753555       -9.1358649496      -12.3012666629
 H        -9.4963676859       -6.2464117632      -15.2628793532
 H        -8.1500976832       -5.4015894994      -15.9396415048
 H       -10.3924603257       -4.1194610227      -15.5911757723
 H        -8.8879551864       -3.3310591268      -15.0671652658
 H        -9.4042845939       -3.3203442296      -10.2805394477
 H        -8.0261095158       -2.4876269452      -10.2286093562
 H        -8.0325274570       -3.7395794695      -11.4409631261
 H       -11.5120568925       -1.8087902051      -14.7278859091
 H        -9.8506613396       -1.2105346007      -14.5564269028
 H       -11.2493270253       -0.4725138038      -13.6621713606
 H       -12.7407853652       -2.3027023801      -12.2754185655
 H       -11.5102647374       -1.9381892402      -10.9518021806
 H       -11.6317276848       -3.5857228817      -11.4527089524
 H        -5.3469939150       -5.8362088922      -15.3681850292
 H        -4.7213266575       -6.9485229640      -13.9905146072
 H        -5.4486353055       -5.4387860512      -13.6985704687
 H        -8.1291729418       -7.9038944231      -15.7735950427
 H        -7.1707531984       -9.0331754624      -14.7423914144
 H        -6.3859847340       -8.0682572640      -15.8636407483
 H        -7.5755559487      -10.4104483632       -7.5068343744
 H        -5.9021928014      -10.7482435370       -7.0325655182
 H        -6.4898372924      -11.3051812955       -8.5809433812
 H        -7.1560362274       -7.6770150843       -7.5745814365
 H        -5.6656303193       -7.0979505060       -8.3242097562
 H        -5.5109287836       -7.9516703466       -6.8575243062
 H         0.4841011429      -14.1090690659       -8.2273703912
 H         0.1001326422      -13.2478805323       -9.6465115154
 H        -0.6731847622      -14.7896520473       -9.4046396878
 H        -2.0368697722      -14.3598031841       -6.3524224558
 H        -2.5095695008      -14.8731365819       -8.0453211368
 H        -3.3816678416      -13.5832643264       -7.0115956259
 H         4.4596394558      -12.2061432822       -7.9511483230
 H         5.1239448731      -13.1628199721       -6.7132464507
 H         5.7207015923      -11.6769733098       -7.0094264277
 H         3.4965535750      -11.0374240209       -3.8814250682
 H         5.0943980990      -10.9816085253       -4.5223613646
 H         4.4431857579      -12.5348640184       -4.3271138736
 H         1.9432940425       -5.8023980153       -6.5996987893
 H         1.0896006683       -4.7162684969       -7.5835421343
 H         2.5829340934       -5.3170684456       -8.3049763397
 H         0.3131086247       -7.3000191309       -6.1376774017
 H        -0.8633814264       -7.8681266071       -7.2710766031
 H        -0.8488449034       -6.1509816105       -6.7415641717
 H        -4.5333570500       -2.1999628044       -7.1673898182
 H        -2.9629535025       -2.9183591504       -6.7595361756
 H        -4.1615638167       -3.6245584805       -8.0483387689
 H        -3.5187619517       -1.5364775267      -10.9473191664
 H        -5.0131485380       -1.4987547815      -10.0542074821
 H        -4.3646722779       -3.1082358940      -10.2568623309
 H         0.8175703968        5.4507380347       -9.8295247145
 H        -0.3687214410        4.7983066046      -10.9088358559
 H         0.9143146794        3.7989840935      -10.3255559600
 H         1.0311660457        2.8203023092       -7.9074147647
 H        -0.1095389863        3.1502659472       -6.7833058224
 H         0.9033055126        4.4387203245       -7.2686541825
 H        -0.3365968351        9.9257336609       -4.3268361465
 H        -1.7122482282       11.0060690920       -4.2724357092
 H        -0.5776232474       11.1354107700       -5.6357829864
 H        -4.0918405349        8.9450192099       -5.8356092778
 H        -3.6016985104       10.0714131257       -4.4550317270
 H        -3.1622627719        8.1954133230       -4.5247590134
 H        -1.4951782215       12.7897478641      -11.6480156214
 H        -2.4614178517       12.5653182348      -13.1012915204
 H        -0.8263444212       11.7893949540      -12.8407530944
 H        -4.4880434290       10.5924295361      -10.8543423020
 H        -4.4381096476       10.8201575293      -12.5700082146
 H        -4.0199532201       12.2308466367      -11.6146145176
 H        -1.6250417763        4.0709141148      -13.8238552324
 H        -0.6612308147        4.4742398677      -15.3492906500
 H        -2.3889860153        3.9704540723      -15.5771160675
 H        -2.4404788664        7.7627309883      -16.0960943381
 H        -2.3551328886        6.3228449280      -17.0341115828
 H        -0.8735993885        6.9493782279      -16.2056373333
 H        -8.4785639375        4.6408909591      -13.5886418231
 H        -8.9704952244        5.5508617807      -12.1626008131
 H        -8.9346815273        3.7937998180      -12.1335653268
 H        -5.9706438344        4.1132693579      -10.1258388906
 H        -7.7859113881        4.1398690774      -10.1496219603
 H        -6.9207962690        5.7631389315      -10.1179529605
 Na       -3.2860866569        4.7610105632      -11.3261964348
 Na       -1.5386471480       -9.1711586696       -9.1416841411
