232

 C        -6.9081380763        2.7774349372      -13.6987382851
 C        -6.1563421122        3.5740395984      -12.6321008683
 O        -5.0773741651        3.2982004720      -12.2577045261
 C        -6.9159783665        4.9257954572      -12.0245724274
 C        -6.0356148252        6.0276264417      -12.5244145520
 O        -5.1798042465        6.5031911491      -11.7835592972
 C        -6.2124455151        6.4840224687      -13.9538968814
 C        -4.7816096514        6.8143236276      -14.5981576750
 C        -3.7916050257        5.6028975750      -14.6384887227
 O        -4.2760896836        4.5332752141      -14.8665310107
 C        -2.2455806513        5.9084839605      -14.7936477659
 C        -1.7598546809        6.6180276847      -13.5057439497
 O        -2.0904050905        6.2510924594      -12.4152154967
 C        -0.6654811941        7.7768757970      -13.6379916117
 C        -0.6383977222        8.8714141042      -12.5693956380
 C        -1.9294197550        9.6765422671      -12.7313140086
 O        -2.7260839440        9.3242896389      -13.5937622673
 C        -2.3359025244       10.9287544197      -11.8638908136
 C        -1.8126549832       10.6674823459      -10.2718810288
 O        -1.4184081654        9.5541750528      -10.0294382191
 C        -1.6933611116       11.8292299314       -9.3175458480
 C        -1.1090428455       11.3562638060       -8.0202336894
 C        -2.3191493809       10.5208221362       -7.2736538613
 O        -3.3034453020       10.2683141495       -7.9326011980
 C        -1.9792499356        9.7081880998       -5.8948321024
 C        -1.3654100484        8.3019393682       -6.3352478455
 O        -0.3714686049        7.9246644145       -5.7266176591
 C        -1.8762696010        7.4180673949       -7.4644234957
 C        -1.5076784411        5.9586323055       -7.2020909038
 C        -1.7220419765        4.9674244853       -8.4237752163
 O        -2.7293566866        5.2095432331       -9.0969180481
 C        -0.5508823774        3.9761502458       -8.8122670478
 C        -1.2620997084        2.7690049773       -9.4238086580
 O        -2.1153207879        2.8762580291      -10.3227522741
 C        -1.1302136616        1.2864656359       -8.8701435732
 C        -2.2618811338        0.3262966624       -9.4495400354
 C        -2.5618449880       -0.7410479326       -8.4054813533
 O        -2.6225908377       -0.3580374774       -7.2345940940
 C        -3.0467747818       -2.1308723133       -8.7632929577
 C        -1.7030549817       -2.7987214765       -9.2942702075
 O        -0.9705836669       -2.1106526934      -10.0031608937
 C        -1.4136577785       -4.2444144765       -9.0210810267
 C        -0.0803278311       -4.8380544748       -9.6086276432
 C        -0.0980616739       -6.3453424668       -9.3687598326
 O        -0.7823573776       -7.0898653896      -10.0157794557
 C         0.6806476784       -6.8074238700       -8.0452973596
 C         1.4567483319       -8.1129215508       -8.4234414585
 O         0.7669589610       -8.9854172303       -8.9054713246
 C         2.9856141853       -8.1943273113       -8.5358264533
 C         3.3748268097       -9.6655039828       -8.1641697835
 C         3.5504944908       -9.9612018647       -6.6017589210
 O         3.4239125747       -9.0486612393       -5.8114740008
 C         3.7009779705      -11.4077977716       -6.1999846652
 C         2.3138103044      -12.1814257855       -6.3381668046
 O         2.2534978844      -13.3117346864       -6.7507848378
 C         1.0470081656      -11.5293385476       -5.5366889903
 C        -0.2631661402      -12.3462191813       -5.9404269723
 C        -0.9773977236      -11.9494011377       -7.2029152706
 O        -1.1683666023      -10.7180933273       -7.3898765520
 C        -1.4582523790      -12.9975363220       -8.1754324002
 C        -2.3024411996      -12.2638383774       -9.3095617999
 O        -1.7837484777      -11.9788438978      -10.3519990964
 C        -3.7485431554      -11.7734395369       -8.8652529414
 C        -4.0080983654      -10.6088147624       -9.8046131986
 C        -4.5635244020       -9.3611281782       -9.0445846146
 O        -3.6925615496       -8.6210052771       -8.6130674516
 C        -6.0521962484       -9.2339208029       -8.6630015529
 C        -6.8002776281       -9.4438642011      -10.0529941989
 O        -6.6572138874      -10.4766654833      -10.7003918292
 C        -7.7441325498       -8.3461740031      -10.3793427533
 C        -7.8851675518       -7.9125767499      -11.8135136085
 C        -6.6062621940       -7.4452361125      -12.5007648535
 O        -5.5215626007       -7.6582571274      -11.9419742089
 C        -6.8307096823       -6.8453312093      -13.9844222416
 C        -8.0557965849       -5.8118660387      -13.8998258154
 O        -8.1579086548       -5.1484625795      -12.8475971143
 C        -8.9008262060       -5.5539673035      -15.0814102907
 C        -9.5980503395       -4.2017267788      -14.9417337663
 C       -10.1615952074       -4.0626334437      -13.5065967975
 O       -10.6909842806       -5.0104710918      -12.9793405637
 C       -10.4510468960       -2.6157537841      -12.7890419358
 C        -9.3707636138       -2.0989595888      -11.7692514088
 O        -8.7934289937       -1.0583898549      -12.0273615295
 C        -9.0673290209       -3.0107001588      -10.5974713445
 C       -10.6243864202       -1.5172673533      -14.0185599837
 C       -11.8510001241       -2.7582024792      -12.0771522120
 C        -5.5451031964       -6.0690168293      -14.4523798211
 C        -7.1248513031       -8.1264062892      -14.9066439024
 C        -6.2990522897      -10.3672976670       -7.6604931206
 C        -6.3535648431       -7.8926680286       -7.9562513322
 C        -0.1607129840      -13.7370919961       -8.7204884347
 C        -2.4279157323      -14.0763561763       -7.4831046312
 C         4.9367360198      -11.9824306602       -6.9276781469
 C         4.0798241918      -11.5478113772       -4.6226962704
 C         1.6447269260       -5.8227709776       -7.4262832548
 C        -0.4255331482       -7.1593722672       -6.9360255128
 C        -3.7548909976       -2.8231949120       -7.5269815670
 C        -4.0286381155       -2.0501980379       -9.9367000141
 C         0.1404916014        4.7211171741       -9.9085943353
 C         0.4014180463        3.4663206496       -7.7187162863
 C        -0.9654483728       10.5058456073       -4.9988407308
 C        -3.3054121965        9.4814010164       -5.2123701759
 C        -1.5714856293       12.0674234987      -12.5818799280
 C        -3.9361443438       11.0139705569      -11.8508474798
 C        -1.5205142761        4.5727287672      -14.8923582065
 C        -2.0895393141        6.5944596579      -16.1722950432
 C        -8.3770460361        5.1832018041      -12.3838086414
 C        -6.7944180253        4.7547974840      -10.4730572632
 H        -7.0679717187        3.3382543691      -14.6019092203
 H        -7.8847100363        2.5536097492      -13.2346589426
 H        -6.3783754621        1.8381608369      -13.9182214200
 H        -6.9077039914        7.3619765868      -13.9702734841
 H        -6.6093536698        5.7628480507      -14.6387394233
 H        -4.2961321789        7.6291363162      -14.0562531392
 H        -4.8122323065        7.0571899334      -15.6836784734
 H        -0.6075881493        8.2765551129      -14.5533088937
 H         0.1732761979        7.0813879447      -13.6298840527
 H         0.3242754175        9.4605665177      -12.6213159566
 H        -0.6674106354        8.2588750618      -11.6336764474
 H        -2.6625839914       12.2432872693       -9.2201236208
 H        -1.1138187732       12.5969809226       -9.8798205575
 H        -0.9033233836       12.2246149833       -7.3160747122
 H        -0.2149811773       10.7981730350       -8.0063889986
 H        -1.5381468276        7.7410124414       -8.4569287231
 H        -2.9124714309        7.5237555601       -7.5756434676
 H        -2.2660702888        5.6844004624       -6.4066104043
 H        -0.5478194149        5.9919628696       -6.6919597526
 H        -1.1876543978        1.3417046605       -7.7740161271
 H        -0.1432088138        0.9214848586       -9.2456834690
 H        -2.0959966833       -0.0134488888      -10.4366054355
 H        -3.2473776776        0.9112235171       -9.6978557915
 H        -2.3328593148       -4.8217131701       -9.3692862452
 H        -1.4934783304       -4.4204640084       -8.0024404092
 H         0.8251871241       -4.2781909088       -9.1680662881
 H        -0.1348103663       -4.6745093332      -10.6439129163
 H         3.5215702839       -7.4207195763       -7.9633040873
 H         3.0350336897       -7.8469797889       -9.5958354888
 H         4.4169321460       -9.9695626284       -8.4563732084
 H         2.6877492351      -10.3965855702       -8.6305495868
 H         0.9743627632      -10.4205027287       -5.4536754355
 H         1.2547596713      -11.6727748220       -4.3504502222
 H        -0.9513109233      -12.2987296520       -5.1089922453
 H         0.0505579084      -13.4120035040       -5.9106539105
 H        -3.6066581875      -11.3123477252       -7.8329190971
 H        -4.3677715151      -12.5987577826       -8.8796948604
 H        -4.7159629269      -10.9754504076      -10.5669423395
 H        -3.2501355282      -10.2179840629      -10.3879261401
 H        -7.5477282410       -7.4997784225       -9.6830434870
 H        -8.7358003130       -8.7690020812      -10.0793813966
 H        -8.7385738642       -7.1425094014      -11.7944917073
 H        -8.1453735324       -8.8334578129      -12.4694310503
 H        -9.7816528548       -6.2859526264      -15.1538635580
 H        -8.3628501879       -5.7498887658      -16.0347458237
 H       -10.5429642939       -4.2562203003      -15.5808207842
 H        -8.9783583475       -3.4294043692      -15.3059510842
 H        -9.8420141667       -3.2034115416       -9.8590977308
 H        -8.3515117115       -2.5330603512       -9.9375943019
 H        -8.5445240599       -3.8654739693      -10.8652575437
 H       -11.5255988584       -1.7713501541      -14.6088265327
 H        -9.7761078965       -1.4504236955      -14.6713054046
 H       -10.7872146319       -0.5497580372      -13.6148509456
 H       -12.5304547686       -3.1752074102      -12.7543674847
 H       -12.1894353727       -1.7678371444      -11.7056752472
 H       -11.7017088356       -3.4104913536      -11.1587545606
 H        -5.9673796379       -5.3580191969      -15.2257195820
 H        -4.8410991667       -6.7914687183      -14.8250508119
 H        -5.0018322460       -5.4743599341      -13.6232916695
 H        -8.1236591076       -8.3989303045      -14.9788990529
 H        -6.5269097680       -9.0447217700      -14.6237493147
 H        -6.7981875119       -7.8742319964      -15.9378887053
 H        -7.1594165240       -9.9561856928       -7.0756547630
 H        -5.5067719510      -10.4414536723       -6.9300004325
 H        -6.5553296072      -11.3278342053       -8.1603054794
 H        -7.4468607574       -7.7664828975       -7.9313468520
 H        -5.9088880261       -7.0148125843       -8.4450895609
 H        -5.9818765000       -7.8785730746       -6.9895189850
 H         0.3469196046      -14.3777392073       -7.9899350872
 H         0.5943965728      -13.1664003953       -9.1977060252
 H        -0.5655399388      -14.4317837838       -9.4710895898
 H        -1.6975459821      -14.7304953644       -6.9442347706
 H        -2.9651184443      -14.6393326610       -8.1710282387
 H        -3.0590822017      -13.7235277471       -6.7103683314
 H         4.8407801342      -12.0335794303       -8.0310954751
 H         5.1029285150      -13.0535586075       -6.7018564558
 H         5.8656205055      -11.4409687613       -6.8384057620
 H         3.2424795661      -11.7094033308       -4.0318797458
 H         4.4978888875      -10.6422553334       -4.1944452610
 H         4.7715022543      -12.3789701029       -4.4934658731
 H         2.2149026760       -6.2796748126       -6.6146060477
 H         1.1910232513       -4.9069623827       -6.9755362707
 H         2.3184600962       -5.5441382366       -8.2409877566
 H         0.0390531728       -7.1294567465       -5.9860650784
 H        -0.9156366532       -8.1809694488       -6.9420780387
 H        -1.2113168730       -6.3631148316       -6.9779280157
 H        -4.7131252643       -2.2997409017       -7.2035734901
 H        -3.0655058712       -2.6791835589       -6.7395804663
 H        -3.9836232756       -3.9265576652       -7.7214155402
 H        -3.5944268916       -1.5680571217      -10.7849281726
 H        -4.8392416037       -1.4125599748       -9.7588733650
 H        -4.4466409427       -2.9930375923      -10.0421465081
 H         0.7622561520        5.5561700954       -9.5604612723
 H        -0.5267041192        5.1539511014      -10.6196434106
 H         0.7865547476        4.0842030070      -10.4926728668
 H         1.0691514785        2.6712629651       -8.1351514573
 H        -0.1074133588        2.8862423398       -6.9622856159
 H         1.0742620957        4.1807487743       -7.1950128579
 H        -0.1582298650        9.8620286420       -4.7570599403
 H        -1.5209597261       10.7776784741       -4.1100919815
 H        -0.4807244736       11.3903903960       -5.4818666906
 H        -3.5929605223        8.5327072870       -5.5419462801
 H        -3.9900004944       10.2234546454       -5.5043783827
 H        -3.2258726600        9.4526918978       -4.1766537479
 H        -1.8600426718       13.0873643937      -12.1395376552
 H        -1.8438560924       12.1000520540      -13.6061258125
 H        -0.5026585790       11.9287701238      -12.4451487033
 H        -4.2146545744        9.9872581105      -11.5094574576
 H        -4.3621882627       11.2731302812      -12.8566822868
 H        -4.2352799337       11.7701644740      -11.1031726626
 H        -1.5243967181        4.1398588309      -13.9761907231
 H        -0.5131082327        4.6839539265      -15.2242343056
 H        -2.0851351648        4.0356880383      -15.5901152494
 H        -2.3660757359        7.6863841295      -16.2149551818
 H        -2.7431471739        6.0212765651      -16.8482834969
 H        -1.1007497456        6.5796541821      -16.5462429767
 H        -8.5636746272        5.7626419745      -13.3030631676
 H        -8.8525667069        5.7577725792      -11.5845119986
 H        -8.8959943895        4.2476123851      -12.5462030683
 H        -5.9191912038        4.2384786442      -10.2427481141
 H        -7.5834876050        4.2246855149      -10.0080228754
 H        -6.7422201084        5.8052957143      -10.1288507892
 Na       -3.6249117165        4.7448558130      -11.1681459858
 Na       -1.5058380917       -9.2568869661       -8.9895601738
