232

 C        -7.6833309773        2.9815520684      -12.4946500002
 C        -6.6752904682        3.9322319403      -11.9879728503
 O        -5.6328080580        3.3822198350      -11.6148591240
 C        -6.8702026207        5.4367706903      -11.7706022648
 C        -5.6345627265        6.3948860451      -12.3418098791
 O        -4.6665024886        6.6113278786      -11.6871595685
 C        -5.7833179035        6.9282812578      -13.7525033502
 C        -4.5720258772        6.8682453033      -14.6408666462
 C        -3.7021491918        5.5588691824      -14.3951542501
 O        -4.1443324971        4.5099844805      -13.9931107014
 C        -2.1344469633        5.6879347580      -14.8645700608
 C        -1.3614914626        6.3818814419      -13.6329141496
 O        -1.6959694397        6.2455792871      -12.4517787241
 C        -0.0790528490        7.1709276929      -13.7671451313
 C        -0.0665581916        8.3527285736      -12.7564158078
 C        -1.4385230884        9.0805528819      -12.7704908207
 O        -2.3105870138        8.6567894604      -13.4836327210
 C        -1.5978800921       10.4771142115      -12.0766098985
 C        -1.1661611180       10.4155036816      -10.6117877597
 O        -1.0723646546        9.3542012735       -9.9904939089
 C        -0.7935633093       11.7586276547       -9.8607065669
 C        -0.8187591378       11.5222659159       -8.3062286435
 C        -2.2443648904       11.1077687247       -7.7316903209
 O        -3.2725751194       11.0354053429       -8.3787317140
 C        -2.1440487444       10.3114219294       -6.2865007364
 C        -1.5116275967        8.9729320668       -6.7115776153
 O        -0.3444802366        8.7743527648       -6.6332194458
 C        -2.3750831200        7.8863794251       -7.3871546594
 C        -1.6335916870        6.5824533298       -7.5062230024
 C        -2.0444905256        5.6480030201       -8.5933806342
 O        -2.9852444441        5.8802359254       -9.3631820514
 C        -1.0273572366        4.4517437638       -8.9342586226
 C        -1.9219287054        3.0859900739       -9.3544202551
 O        -2.6511217962        3.1586992267      -10.2913645427
 C        -1.8140198153        1.8288944554       -8.4856781998
 C        -2.3490006498        0.5605535083       -9.2593613527
 C        -2.3164214001       -0.7458185101       -8.3200727620
 O        -1.7977035447       -0.7377087501       -7.1931138119
 C        -2.9571746058       -2.1261748308       -8.7296383251
 C        -1.6960605314       -3.0192835261       -9.1529459858
 O        -0.9746163976       -2.5578234690      -10.0035574970
 C        -1.5852237080       -4.4873481102       -8.6733865053
 C        -0.1555762535       -4.9641630308       -9.1437974413
 C        -0.0290872647       -6.4896666783       -9.1405363452
 O        -0.7506637335       -7.1055903106       -9.9256018516
 C         0.8420565984       -7.2381023842       -8.0656902776
 C         1.5760289562       -8.5309674220       -8.8015839948
 O         0.8921315564       -9.3954086588       -9.3414741318
 C         3.0907187180       -8.4399207150       -8.8985930451
 C         3.8604008212       -9.6409157670       -8.2937176548
 C         3.2008454873       -9.9377730889       -6.9689451263
 O         2.3288306070       -9.2157358077       -6.5835460894
 C         3.6188857419      -11.1834352854       -6.0030628203
 C         2.4571343485      -12.1607699380       -6.2857371230
 O         2.5270656568      -12.9606022504       -7.1775963806
 C         1.2390204568      -11.9156394757       -5.3508706425
 C         0.0081407688      -12.7006812234       -6.0310356744
 C        -0.7987095932      -12.0553093944       -7.1149283862
 O        -1.0587992384      -10.8936889155       -7.0241570230
 C        -1.2655768347      -13.0026585407       -8.3090186210
 C        -2.3396751962      -12.2542853415       -9.2216055929
 O        -1.9341103813      -11.5106114029      -10.1020029248
 C        -3.8581878702      -12.4023301010       -9.0129035884
 C        -4.6671399280      -11.3474749941       -9.7273045323
 C        -4.6345370365       -9.9976368401       -9.0177317088
 O        -3.5594757543       -9.4317748044       -8.8840005465
 C        -5.9300731562       -9.4316409522       -8.4466145068
 C        -7.0192782226       -9.4340415684       -9.6151417968
 O        -7.3552192556      -10.4482121944      -10.1564670293
 C        -7.9160066386       -8.0989747716       -9.9491315963
 C        -8.0225918527       -7.9058199855      -11.4871852065
 C        -6.7114617831       -7.7946039368      -12.2754913348
 O        -5.6699014693       -8.4210468639      -12.1205136765
 C        -6.8290891114       -6.9414915761      -13.7225462739
 C        -7.5719512896       -5.6494614418      -13.5057652948
 O        -7.0874104413       -4.7652965501      -12.8241990593
 C        -8.7375733678       -5.3713491566      -14.5503797156
 C        -9.3566229633       -3.9134178527      -14.4818483804
 C       -10.7431355611       -3.9053246973      -13.8380787147
 O       -11.4296618208       -4.8766740884      -13.8842174531
 C       -11.1224734432       -2.6543983990      -12.7984945606
 C       -10.2593522843       -2.9387696683      -11.4279059658
 O        -9.1515953027       -2.4790567638      -11.2248913236
 C       -10.9532194996       -3.8183045478      -10.3792506500
 C       -10.5644502717       -1.2924791228      -13.4155009745
 C       -12.7286403222       -2.6295822963      -12.7756262037
 C        -5.4851671260       -6.4860392956      -14.4028948298
 C        -7.5111310827       -7.9566365197      -14.6180573163
 C        -6.5320917086      -10.3295097071       -7.2875572493
 C        -5.5088764219       -8.0306973454       -7.9388512283
 C         0.0443520098      -13.2116370858       -9.3068644944
 C        -1.8050550253      -14.3838620288       -7.8366576327
 C         5.0452155558      -11.7976644828       -6.3021370628
 C         3.6463783805      -10.8553852562       -4.5132311209
 C         1.7575747629       -6.2316203965       -7.4252597012
 C        -0.2296289390       -7.7094052408       -7.0533577125
 C        -3.7877591292       -2.7254521760       -7.5558329769
 C        -3.8800643031       -1.9856064699      -10.0431151425
 C        -0.1766518791        4.6382530506      -10.2607125141
 C        -0.0163650132        4.2057027623       -7.7871748285
 C        -1.3305755639       11.0169175932       -5.1934603682
 C        -3.6233652776       10.1699121535       -5.8465257908
 C        -0.7331989920       11.5396266002      -12.8546700342
 C        -3.0146627014       10.9925364390      -12.2257866678
 C        -1.5483409940        4.3000304345      -14.8984528894
 C        -1.8607299185        6.4134314102      -16.1828308398
 C        -8.1402829646        6.0414383091      -12.3471268058
 C        -6.8216892174        5.6938540309      -10.2036224568
 H        -7.5869547977        2.1310821732      -11.7764938445
 H        -7.4888583806        2.5349886989      -13.4824434405
 H        -8.7160120376        3.3622824028      -12.5540512499
 H        -5.9840660023        7.9893302583      -13.6473545117
 H        -6.6173551422        6.5393384645      -14.3790958015
 H        -3.9345104310        7.7457918085      -14.4323044026
 H        -4.8544573697        6.8465769925      -15.6737192599
 H        -0.0249466466        7.5962265382      -14.7706938573
 H         0.6959731466        6.4555578866      -13.6179894921
 H         0.8571286176        9.0520156503      -12.8192211405
 H         0.2025550722        7.9395602245      -11.7559424151
 H        -1.5446687293       12.5516209262      -10.1965729537
 H         0.2173587946       11.9657350238      -10.1648720572
 H        -0.5500115399       12.3454824167       -7.6920383110
 H        -0.1870850627       10.5940005405       -8.0441849954
 H        -2.7091724686        8.2287178545       -8.3455994011
 H        -3.2855487706        7.6269095243       -6.8460187954
 H        -1.3891039165        6.1788756888       -6.5386994664
 H        -0.6617542941        6.8390044722       -7.9502010648
 H        -2.4743760565        1.8099196010       -7.6267264925
 H        -0.7917017441        1.6114636688       -8.2001798355
 H        -1.6628029805        0.3133964840      -10.1156359012
 H        -3.3861715143        0.7372504375       -9.4906517438
 H        -2.2870989617       -5.1006482541       -9.2456917219
 H        -1.8042327807       -4.5470969572       -7.5756901069
 H         0.5360911708       -4.4304372196       -8.6457160465
 H        -0.0519354240       -4.5907559956      -10.1910467801
 H         3.3961603678       -7.4894835996       -8.4554773667
 H         3.2940847318       -8.4120085581       -9.9645094886
 H         4.8313248484       -9.3133431492       -8.0045344777
 H         3.7689708317      -10.3941079277       -9.0855289213
 H         0.8387767017      -10.8263151035       -5.1945259122
 H         1.4182866922      -12.4019052425       -4.3583602047
 H        -0.8218017624      -12.8095305301       -5.2368681506
 H         0.3955503802      -13.6697255737       -6.3275242849
 H        -4.1255909218      -12.3880461613       -7.9898191200
 H        -4.0263572494      -13.5248414686       -9.2668852954
 H        -5.6579608130      -11.7071310722       -9.7605119630
 H        -4.3599886947      -11.1255080790      -10.7721820836
 H        -7.5579415347       -7.1680200732       -9.4610400423
 H        -8.9655327255       -8.3230971015       -9.5836484074
 H        -8.6504624555       -7.0019647378      -11.7078017295
 H        -8.5873123218       -8.7610066030      -11.9784704533
 H        -9.4271832702       -6.1516066683      -14.7600204891
 H        -8.1886081863       -5.3901631367      -15.5145649709
 H        -9.3236894432       -3.4487028840      -15.4440090338
 H        -8.6530932465       -3.3766462570      -13.7724170268
 H       -11.2641220971       -3.3715678147       -9.4436835151
 H       -10.3202618433       -4.6736514556      -10.0618974469
 H       -11.9626579492       -4.1050677804      -10.7589878359
 H       -11.0441242170       -1.1825885698      -14.3693672830
 H        -9.4734472210       -1.2724534155      -13.4929141101
 H       -10.8191538082       -0.4056596477      -12.7894647856
 H       -13.0213283588       -2.5452533660      -13.8739339760
 H       -13.1631890562       -1.6979796581      -12.3152637238
 H       -13.0587262135       -3.5979166506      -12.3962710845
 H        -5.7189005103       -6.1026017629      -15.3831121122
 H        -4.8818744936       -7.4407482520      -14.6638743740
 H        -4.9445148892       -5.6909243003      -13.8816899237
 H        -8.4312141142       -8.4094876582      -14.0921930086
 H        -6.8488115693       -8.7025949032      -14.9505642648
 H        -7.8512531899       -7.4270566463      -15.5028095759
 H        -7.5401775714      -10.0438173261       -7.1513012269
 H        -5.9729168800      -10.2858059490       -6.3373968304
 H        -6.5204452297      -11.3652824192       -7.5484088083
 H        -6.2769975005       -7.4539800305       -7.4519261343
 H        -5.0440519936       -7.4783330704       -8.7596152548
 H        -4.6761670387       -8.1796978545       -7.1601270879
 H         0.8014552772      -13.8607795269       -8.8998733112
 H         0.5001047595      -12.2607933402       -9.7291287122
 H        -0.3757242408      -13.7575921146      -10.1408886212
 H        -1.0221206773      -15.0397666505       -7.4513664054
 H        -2.2989436017      -15.0218841755       -8.6105343787
 H        -2.5015066975      -14.2290769574       -6.9770077159
 H         5.1894971204      -12.0191262160       -7.3210380275
 H         5.4246991680      -12.5228402553       -5.6650114766
 H         5.6997546679      -10.9649697109       -6.0934909403
 H         2.6105815830      -10.6405068477       -4.1553908905
 H         4.3213023723      -10.0417972419       -4.3088189058
 H         3.9484168374      -11.7476438871       -3.9618486527
 H         2.5395898918       -6.8069599238       -6.8828645055
 H         1.2467570194       -5.6180814312       -6.7103328749
 H         2.3216832298       -5.5252497786       -8.0614066704
 H         0.2391897663       -7.8457590529       -6.0570490440
 H        -0.7740491583       -8.5921307712       -7.3112589302
 H        -0.9373185539       -6.9622075407       -6.7738023885
 H        -4.4296016248       -1.8694222170       -7.3388325293
 H        -3.1031674419       -2.9473264780       -6.6594523195
 H        -4.4291633077       -3.5336019227       -7.9757509700
 H        -3.2921843028       -1.4516385276      -10.7024319705
 H        -4.7822232910       -1.5084268273       -9.7476609009
 H        -4.0894794355       -2.8817292980      -10.6939026170
 H         0.5493632949        5.4439973422      -10.1782858941
 H        -0.8688379788        4.9478206860      -11.0714856803
 H         0.3614659895        3.7232130896      -10.5585531873
 H         0.4785766846        3.2563754355       -7.9542870968
 H        -0.5592271495        4.2130326410       -6.8170743421
 H         0.6410740630        5.0701464724       -7.7444858246
 H        -1.1420322617       10.3461778163       -4.3276832573
 H        -1.9169952372       11.8371024130       -4.7720496230
 H        -0.4438073271       11.4581014621       -5.5301751727
 H        -4.2085143829       10.8675913498       -6.4695315002
 H        -3.6626054607       10.5358651972       -4.8242417253
 H        -3.9763165260        9.1000734307       -5.8965317018
 H        -0.3439197376       12.3256995593      -12.3017146435
 H        -1.2839916192       11.8898430543      -13.7539009147
 H         0.1268922917       10.9900919659      -13.2907151641
 H        -3.7892249362       10.2757348100      -11.9723226974
 H        -3.2387069794       11.3035051390      -13.2219802604
 H        -3.0780451796       11.8094797844      -11.5033686794
 H        -1.9800067329        3.7396531153      -14.0167628439
 H        -0.4727181068        4.3669304880      -15.0027572487
 H        -1.9722971086        3.8441399849      -15.8385547826
 H        -2.3478584445        7.3405554402      -16.2333920561
 H        -2.3088957711        5.9367259069      -17.0472639879
 H        -0.7707392543        6.4765345573      -16.5015751474
 H        -8.5020678392        5.5050618580      -13.2187954171
 H        -8.0544828350        7.0873218059      -12.6259949335
 H        -8.8847896857        5.9257965433      -11.5497748904
 H        -5.8722472800        5.3243462399       -9.8002386796
 H        -7.7791367026        5.3657884289       -9.7955356054
 H        -6.8159383633        6.7887452711      -10.1564343453
 Na       -3.5725435648        4.7742705249      -11.6073861871
 Na       -1.3098780128       -9.5033073432       -9.2170525358
