232

 C        -7.9494953071        3.8003366200      -11.1905678219
 C        -6.8237151348        4.7713150862      -11.2200749448
 O        -5.7196359068        4.3526726925      -10.8472534726
 C        -7.0835627759        6.2826020032      -11.7090156162
 C        -5.8197520989        6.7487773410      -12.6455333352
 O        -4.8998088062        7.3606964387      -12.0895844419
 C        -5.9865561453        6.3936925210      -14.0760260421
 C        -4.6894510430        6.6823072786      -14.8900573033
 C        -3.6450223588        5.5485754433      -14.5408005325
 O        -3.9768662620        4.6009905368      -13.8559606184
 C        -2.2040092397        5.7894274046      -15.0733876767
 C        -1.4116325162        6.0916304570      -13.8579442471
 O        -1.7921076909        5.6936576614      -12.7258933049
 C        -0.1082740941        6.7973006203      -13.9174021908
 C         0.1088172739        7.9900968351      -12.8951327754
 C        -0.9651981467        9.1108147179      -13.2232955800
 O        -1.9667041347        8.7738149721      -13.8841776118
 C        -0.8374023667       10.5106140859      -12.5494347508
 C        -0.3712888892       10.4370195501      -11.0327548047
 O        -0.2239773961        9.4059029033      -10.4312090212
 C        -0.1824572902       11.7870711543      -10.2263767218
 C        -0.4154316640       11.4471864684       -8.6834681244
 C        -1.9810270091       11.2195415142       -8.4482129289
 O        -2.7865415756       11.5991399239       -9.2471358236
 C        -2.4658146369       10.5155905753       -7.1023837658
 C        -1.7916736095        9.1507435316       -6.8787998917
 O        -0.9914387571        9.0966735853       -5.9566517176
 C        -1.9868973784        7.9442912571       -7.8389299072
 C        -1.3466419288        6.6494484192       -7.3445516314
 C        -1.6307116067        5.5828948189       -8.4906971966
 O        -2.2999877365        5.8353784287       -9.4372158608
 C        -0.8970734423        4.1149738392       -8.3967346727
 C        -1.9740012172        3.0289169138       -8.7336054317
 O        -2.8614385473        3.1791406141       -9.5671276565
 C        -1.7836404775        1.7188697052       -8.0015282884
 C        -2.4608328508        0.4891807979       -8.7327571728
 C        -2.1569543822       -0.8673132089       -8.0751992983
 O        -1.4944966876       -0.9585681344       -7.0684340409
 C        -2.8624496355       -2.0223084465       -8.8479277606
 C        -1.5618586388       -2.8000884967       -9.5695038915
 O        -1.0491191197       -2.2285249874      -10.5037459768
 C        -1.0868351592       -4.0797807890       -8.9661757743
 C        -0.3905146688       -5.0680767104       -9.9574305933
 C        -0.3013514651       -6.4217498775       -9.2283261573
 O        -1.2895475548       -7.1546612120       -9.3881726203
 C         0.7930293571       -6.6486568219       -8.2020238276
 C         1.5652676299       -8.1564422935       -8.4323239652
 O         0.9227928371       -9.1881805959       -8.5298907707
 C         3.0900919259       -8.1648966733       -8.2770608823
 C         3.5387421337       -9.6390121286       -7.9261624900
 C         3.1171213923       -9.9158548153       -6.4783213686
 O         2.4350456889       -9.2110756837       -5.7375802346
 C         3.5426182867      -11.2852738830       -5.9363744570
 C         2.4420205919      -12.2384887346       -6.4872766125
 O         2.6631914579      -12.9186100831       -7.4728489497
 C         1.0044496307      -12.3074467331       -5.7703340142
 C         0.0552099440      -13.2310647483       -6.6761113447
 C        -0.4823998600      -12.4994282177       -7.8450586002
 O        -0.3585846222      -11.2679020887       -7.9448533776
 C        -1.1926342556      -13.3858292986       -8.9964578255
 C        -2.3108328253      -12.4182903419       -9.5127409843
 O        -2.1867957215      -11.5311187263      -10.3311538827
 C        -3.6280379150      -12.6636455891       -8.7714400620
 C        -4.6772723607      -11.5614938753       -9.1949130565
 C        -4.6605081034      -10.2733545177       -8.4117758523
 O        -3.6382272317       -9.6611881540       -8.1939503529
 C        -6.0148111715       -9.7670276654       -8.0707940936
 C        -6.8853512856       -9.5457082149       -9.4909799599
 O        -6.9773947917      -10.5067538405      -10.2049114441
 C        -7.5331069457       -8.2274896521       -9.7796324216
 C        -8.0358356992       -8.1353257873      -11.1647483184
 C        -6.8082119590       -8.1211070226      -12.1999737161
 O        -5.7235418634       -8.3972648545      -11.8069992283
 C        -7.1314878466       -7.3440659042      -13.5508684719
 C        -7.2123697411       -5.7141900399      -13.2170809696
 O        -6.5951277791       -5.2560749026      -12.3046470288
 C        -8.1542743066       -4.9344284169      -14.1496855093
 C        -9.0140258896       -3.7160402847      -13.5794840919
 C       -10.4641628247       -4.0165227853      -13.4041518366
 O       -10.9659537064       -5.1019305059      -13.7271358456
 C       -11.3179364293       -2.8466848188      -12.8495414941
 C       -11.5083400616       -3.2398709658      -11.2608862637
 O       -10.7365742202       -2.7508197740      -10.4894938746
 C       -12.3606255265       -4.5032299902      -10.9385465452
 C       -10.5435040552       -1.4074175376      -12.9427473769
 C       -12.6565707006       -2.8704924660      -13.5594069363
 C        -6.0347098458       -7.6630161948      -14.5626559916
 C        -8.5225768584       -7.9335353679      -14.0565670271
 C        -6.8661378165      -10.7573323076       -7.2685845092
 C        -5.9298442468       -8.4258973546       -7.2946610800
 C        -0.1266336263      -13.5306861545      -10.2424779087
 C        -1.8895919589      -14.7373315489       -8.5173128082
 C         4.8787901672      -11.7546897757       -6.6108814175
 C         3.5365502335      -11.4751915134       -4.4066381005
 C         1.8040528574       -5.4817254791       -8.2683351183
 C         0.0909208040       -6.7719970409       -6.7268627431
 C        -3.5522660214       -3.0232740403       -7.8378872578
 C        -3.8866180976       -1.6563659553       -9.9190746756
 C         0.2449376804        4.2458084675       -9.4984828287
 C        -0.2143868391        3.8712807897       -6.9123848680
 C        -2.0870517494       11.4506536636       -5.9241406797
 C        -4.0515533793       10.3322864881       -7.3127007385
 C         0.3069497086       11.3139604669      -13.2872152701
 C        -2.1863278056       11.2608506172      -12.5028241783
 C        -1.6980563277        4.3415758824      -15.5345782422
 C        -2.2361042191        6.7817170638      -16.2085062920
 C        -8.3281951585        6.5577391224      -12.4589961793
 C        -7.0722758934        7.1196391066      -10.3654840082
 H        -8.9746921725        4.1378319886      -11.2927547840
 H        -7.8436706972        3.2327001806      -10.2782373154
 H        -7.7767869631        3.1816636516      -12.0588849014
 H        -6.7912080564        7.0030746669      -14.5666213067
 H        -6.2576153417        5.3446896464      -14.2477262487
 H        -4.2283761495        7.5887522408      -14.5572065916
 H        -4.9107466266        6.8230589101      -15.9628262649
 H         0.2060191461        7.1167977647      -14.9168195938
 H         0.5644932374        6.0109883863      -13.5972438114
 H         1.1557935649        8.3621797335      -12.8704023655
 H        -0.0819766812        7.5938863156      -11.7972082441
 H        -0.7191487812       12.6746517140      -10.6143612806
 H         0.9213903106       11.9912445927      -10.4385278811
 H        -0.1161320286       12.2901853349       -7.9732443036
 H         0.1786637278       10.5951751165       -8.3714240010
 H        -1.4748676454        8.1819913411       -8.7941778617
 H        -3.0780174164        7.8666490889       -8.0402344377
 H        -1.7210077356        6.3410321968       -6.3983188761
 H        -0.2801077479        6.8488520159       -7.1938271083
 H        -1.9267173336        1.7399626949       -6.8828918827
 H        -0.6858235028        1.6807465122       -8.0492955446
 H        -2.2744897660        0.4814198294       -9.8198691048
 H        -3.5427793289        0.7147375957       -8.7013082177
 H        -1.9249683471       -4.5885852550       -8.4350531380
 H        -0.3132589835       -3.8284500254       -8.2307595297
 H         0.6186248794       -4.7433971730      -10.2401901820
 H        -1.0073528650       -5.2679213119      -10.7601284999
 H         3.5080456553       -7.4364827580       -7.6138463481
 H         3.4634084033       -7.8172729109       -9.2349473777
 H         4.6348955193       -9.6957284362       -7.9268804157
 H         3.2645816645      -10.3466031527       -8.6623654609
 H         0.4099848761      -11.3845414485       -5.4694201375
 H         1.2289566017      -12.8761207695       -4.8694016237
 H        -0.8283544785      -13.4651154071       -6.0729896376
 H         0.5891375339      -14.2215162313       -6.8979404857
 H        -3.6055993690      -12.7184883928       -7.6138380182
 H        -3.9290505796      -13.6193606918       -9.0690662726
 H        -5.7003034099      -12.0223535361       -9.1262035275
 H        -4.4247948132      -11.3475971554      -10.2251303339
 H        -6.8727494638       -7.3941338290       -9.4679072150
 H        -8.4454751205       -8.0701836384       -9.1664772458
 H        -8.5164607744       -7.1925110915      -11.3317789899
 H        -8.7822052143       -8.9142667864      -11.3756531195
 H        -8.9540610142       -5.6116050205      -14.4288516746
 H        -7.5352357055       -4.6320567449      -14.9140046481
 H        -8.8705640436       -2.9080127855      -14.2784481119
 H        -8.5992763252       -3.2734870221      -12.6481384628
 H       -12.3430097808       -5.1924363865      -11.8127941752
 H       -13.4439424460       -4.4220676404      -10.7656023552
 H       -11.8504560996       -4.9046082302      -10.0404534799
 H        -9.9675509161       -1.1989743696      -13.8808098066
 H        -9.7440593683       -1.3687277096      -12.1915737734
 H       -11.2365077044       -0.5916826210      -12.7586796502
 H       -12.4187671413       -2.6960882041      -14.6283604810
 H       -13.3084651558       -2.1422763041      -13.2025512879
 H       -13.1325766769       -3.8404009882      -13.4467900521
 H        -6.3878747956       -7.5797899389      -15.5624563781
 H        -5.6868179287       -8.6405778131      -14.3821204140
 H        -5.1543171590       -7.1416264477      -14.4099547392
 H        -9.3897453103       -7.4140170161      -13.8401246644
 H        -8.6518872863       -8.9986024231      -13.7747263915
 H        -8.3693532145       -7.9571443214      -15.1439347175
 H        -7.8958900033      -10.3641060853       -7.0422832410
 H        -6.4557519697      -10.9457574817       -6.2942694142
 H        -7.1219679252      -11.7087126947       -7.7710124764
 H        -6.9532947353       -8.0312127594       -7.1117548182
 H        -5.4043392202       -7.6792224054       -7.8932010478
 H        -5.4886012787       -8.5283852001       -6.3615196577
 H         0.9198621982      -13.5830928485       -9.8632786938
 H        -0.2537254419      -12.6602420710      -10.8406152709
 H        -0.3956653075      -14.4592515292      -10.8449364709
 H        -1.0682569415      -15.4688385430       -8.3757666493
 H        -2.6143767426      -15.1859932928       -9.2478424837
 H        -2.4534287344      -14.6793741353       -7.5370379969
 H         4.9113158874      -11.7295361147       -7.7089846679
 H         5.0077199066      -12.8444921588       -6.3748898667
 H         5.5950694785      -11.1013299675       -6.1436951787
 H         2.6217155018      -11.0846991112       -4.0851952691
 H         4.4531311658      -11.0481490118       -3.9526315617
 H         3.5398306495      -12.5923506474       -4.3537040619
 H         2.5256342254       -5.5604540262       -7.4831511988
 H         1.2229687910       -4.5401750700       -8.1491902206
 H         2.3625434401       -5.4337865067       -9.1905462485
 H         0.8068791981       -7.2322284994       -6.0305753278
 H        -0.7330759173       -7.3186090753       -6.5577418605
 H        -0.1359822602       -5.7508357320       -6.4711862542
 H        -4.4700184734       -2.5263655291       -7.5858634875
 H        -2.8744143273       -3.1284000751       -7.0132159375
 H        -3.8425733803       -3.9511896932       -8.2745944204
 H        -3.5036141551       -1.2162901304      -10.8979745275
 H        -4.4656077384       -0.7501113226       -9.5566789562
 H        -4.4944577874       -2.5342427927       -9.9902806521
 H         0.6284836580        5.2687821147       -9.4078847531
 H        -0.1243192754        4.0501005547      -10.4738390998
 H         1.0717019438        3.5762731231       -9.2628067381
 H         0.3340048902        2.9377185888       -6.9468062213
 H        -1.0410741950        3.8881834839       -6.2898919595
 H         0.5106884452        4.6872198452       -6.8784523822
 H        -1.5757457799       10.9079306207       -5.1501091175
 H        -2.8985791587       12.0740745251       -5.5305086227
 H        -1.2546118759       12.2082107324       -6.0926870603
 H        -4.4736024121       10.3275653151       -6.2485782278
 H        -4.4217643227        9.3215227025       -7.7609259960
 H        -4.7101861266       11.0565185244       -7.8927656577
 H         1.0052138048       10.5027103800      -13.6811303367
 H         0.8811070797       11.8875335039      -12.5840377039
 H        -0.0499721383       12.0023295463      -14.0620741351
 H        -2.1632862855       12.2037577168      -13.0047123853
 H        -2.3944529159       11.5680986691      -11.4814066999
 H        -3.0997587394       10.7550541227      -12.7275071690
 H        -2.0753091787        3.5948099419      -14.7709514867
 H        -0.5732304765        4.2833843078      -15.5505438375
 H        -2.1815056672        4.1928935122      -16.5024650460
 H        -2.7081913383        7.7449673472      -15.8536534319
 H        -2.6066313960        6.3334523597      -17.1373547571
 H        -1.2833653868        7.1239898644      -16.4241092480
 H        -8.3081271543        6.2420220018      -13.4971903519
 H        -8.5724118987        7.6044100263      -12.3739952929
 H        -9.1345095620        6.0147277210      -12.0102124073
 H        -5.9588303261        7.1659728947      -10.0244252741
 H        -7.7677532407        6.6021818070       -9.6438418576
 H        -7.5033820792        8.0186244007      -10.7731536228
 Na       -3.6073346524        5.0977897183      -11.1849495419
 Na       -1.6293227452       -9.4669789601       -9.1116239871
