232

 C        -8.1681484346        4.1086580924      -10.6154762175
 C        -6.9144408720        5.0112724062      -10.9347848159
 O        -5.7922329228        4.6173845968      -10.6134909781
 C        -7.1045429668        6.5122839492      -11.5979261562
 C        -5.9053950022        6.6463279942      -12.5825639115
 O        -4.8201979400        6.7553224087      -12.0833497625
 C        -6.0251040854        6.6262375850      -14.1047489766
 C        -4.6882110034        6.7149568325      -14.8773970272
 C        -3.6732932916        5.6003027943      -14.5662051985
 O        -4.0534892209        4.6250003798      -13.9886388937
 C        -2.2550964036        5.7165109489      -15.0467625397
 C        -1.4020810330        6.1556223998      -13.7745896785
 O        -1.8380070109        6.0024923147      -12.6099244433
 C         0.0303321364        6.7504195561      -13.9959878603
 C         0.3216988297        8.0520570225      -13.2171264051
 C        -0.9297425247        9.0688231309      -13.2451070319
 O        -1.9989926951        8.7489304495      -13.7822880827
 C        -0.6554222413       10.4324705487      -12.5402062052
 C        -0.2860172725       10.1720680507      -10.9916749582
 O        -0.1944244944        9.1110789564      -10.4608832424
 C         0.1968190393       11.4055933836      -10.2610227852
 C        -0.3956932597       11.5341081172       -8.8466101241
 C        -1.9410187815       11.1856335957       -8.7334407315
 O        -2.6563409585       11.2334422857       -9.6801744920
 C        -2.5032361420       10.6525119905       -7.4322854002
 C        -1.7132055176        9.3215113883       -6.8961175739
 O        -1.2699669808        9.2678688645       -5.7461603122
 C        -1.5953363953        8.2632995764       -8.0334584831
 C        -1.2868731411        6.8586407485       -7.4710620126
 C        -1.6065868375        5.7438347965       -8.5433581776
 O        -2.4440039309        5.9732587452       -9.3824362610
 C        -0.9648665580        4.2902390096       -8.3040476891
 C        -1.9560094079        3.1140228819       -8.6166768376
 O        -2.7490056275        3.2336017251       -9.5280069716
 C        -1.6874856642        1.6569553785       -8.1052225401
 C        -2.3145756199        0.6555460733       -9.0116202406
 C        -2.2811740779       -0.7545061166       -8.3190291209
 O        -1.5831996438       -0.8434001750       -7.3519255828
 C        -3.0528607030       -1.9677255408       -8.9192804440
 C        -1.9320232920       -2.8736412582       -9.5700270292
 O        -1.3233655628       -2.4020550572      -10.5199398955
 C        -1.3817871125       -4.1184819143       -8.9265637018
 C        -0.6168235379       -5.0136709179       -9.9407165014
 C        -0.2868681036       -6.4034005877       -9.3060393178
 O        -1.0517429510       -7.3185710168       -9.5265059921
 C         0.8352009602       -6.6094812694       -8.2637751904
 C         1.4758673921       -7.9689194195       -8.3755524563
 O         0.8162046162       -8.9019120479       -8.8115288202
 C         3.0157114775       -8.2037942189       -8.0671502281
 C         3.4882013515       -9.5341621864       -7.7041080933
 C         3.1106166546      -10.1380909214       -6.3302862908
 O         2.5070482817       -9.5628941475       -5.4663536613
 C         3.5387677087      -11.5705400721       -5.9942185397
 C         2.4378383520      -12.3565253035       -6.6363694841
 O         2.5570576101      -12.6448816246       -7.8378026039
 C         1.1215881583      -12.7764347397       -5.9153657738
 C         0.2159233909      -13.5909739893       -6.7972684352
 C        -0.3229526652      -12.6821588837       -7.9275171729
 O        -0.3401745497      -11.4607463897       -7.7678869583
 C        -1.0916179169      -13.3916452481       -9.2098517910
 C        -2.1653901638      -12.4317540661       -9.5528648173
 O        -1.9606777780      -11.5067542199      -10.3483345227
 C        -3.5650846803      -12.5104201721       -8.8686301958
 C        -4.5581256547      -11.4068911829       -9.2308532874
 C        -4.7331000825      -10.2941460388       -8.1787332662
 O        -3.7105537558       -9.6739484406       -7.8012664431
 C        -6.2048133282       -9.8454272141       -7.7891082922
 C        -7.0959086222       -9.4831579372       -9.1587356920
 O        -7.3096821842      -10.4778089634       -9.8186343392
 C        -7.5248315059       -8.1001753014       -9.5894083467
 C        -8.0363911016       -8.1859523299      -11.0112926136
 C        -6.9313805767       -8.1237018820      -12.1653005099
 O        -5.8006669835       -8.4573853545      -11.9973036838
 C        -7.3813272060       -7.3665335450      -13.4461168591
 C        -7.3938624353       -5.8074164672      -13.2505342854
 O        -6.8917045948       -5.2815110814      -12.3027678623
 C        -7.9293198479       -4.8278055991      -14.2868149770
 C        -8.7728679419       -3.6966083674      -13.5275796174
 C       -10.2347695914       -4.0464140076      -13.3086025093
 O       -10.5980917187       -5.2131479113      -13.5328656993
 C       -11.2527647166       -2.9904310918      -12.7637995411
 C       -11.7171433664       -3.4175393673      -11.3615370172
 O       -11.3531685237       -2.8071162283      -10.3907237671
 C       -12.7826598252       -4.5292765127      -11.2153769447
 C       -10.6492702738       -1.5679553329      -12.6386756694
 C       -12.4585630200       -3.0278721627      -13.7370799799
 C        -6.1979188006       -7.5726848306      -14.5383455985
 C        -8.7273944042       -7.8778965581      -14.1158446398
 C        -6.8510428206      -11.0442481887       -7.0495257607
 C        -6.1471186365       -8.6057075141       -6.8597053109
 C        -0.0167067524      -13.4731786721      -10.3277869426
 C        -1.4920539608      -14.8729879179       -8.7949374910
 C         4.9528954254      -11.8595916413       -6.5160462112
 C         3.4976839643      -11.5595970903       -4.3810692588
 C         1.9335548145       -5.3968920489       -8.4521508570
 C         0.1686795022       -6.5961529134       -6.7942491200
 C        -3.7914028709       -2.4602773194       -7.6445519000
 C        -4.1018365088       -1.5841597613      -10.0239493525
 C         0.2687375969        4.1107822473       -9.2063848338
 C        -0.3919801149        4.1028788857       -6.7782846753
 C        -2.3084776299       11.8046439007       -6.3393827377
 C        -3.9686713305       10.1465211992       -7.5178554501
 C         0.6066637512       11.1650722936      -13.2446749025
 C        -1.8616365010       11.3378770475      -12.7182962626
 C        -1.6144947298        4.3370890242      -15.5208655289
 C        -1.9524275038        6.9149690262      -16.1253304448
 C        -8.4597876743        6.6957870230      -12.3105661877
 C        -7.0405060135        7.5589953703      -10.4324521498
 H        -8.3391666026        4.1199518436       -9.5433368627
 H        -8.0691066632        3.0259695394      -10.9049587355
 H        -9.0846538127        4.5362458746      -11.0248587630
 H        -6.5752021181        7.4402822337      -14.5283441136
 H        -6.5667172133        5.6957395080      -14.3807204893
 H        -4.3974018959        7.7689745992      -14.8153889726
 H        -4.8373452096        6.5460240250      -15.9617843944
 H         0.1607803725        6.9891336595      -15.0942243017
 H         0.7240805017        5.9115701075      -13.8555150924
 H         1.1477242148        8.6083920622      -13.5872998546
 H         0.4624970398        7.7059829017      -12.1882435718
 H         0.1488717519       12.3123430950      -10.8801334337
 H         1.2430176421       11.2837542207      -10.2044543562
 H        -0.0801873777       12.4290840357       -8.3894945403
 H         0.0714563664       10.7709272928       -8.1981604691
 H        -0.7940047731        8.6537382107       -8.6881717181
 H        -2.5142524752        8.3410260796       -8.7001036759
 H        -1.9049883852        6.7267125514       -6.5723185951
 H        -0.2207107884        6.8097816888       -7.1575345188
 H        -1.9168599530        1.3991315638       -7.0602421351
 H        -0.6472607417        1.4500774939       -8.1631170192
 H        -1.7398305907        0.7648249622      -10.0248187259
 H        -3.3300491884        0.7596384479       -9.3370397244
 H        -2.0769970761       -4.6536719925       -8.3415190102
 H        -0.6198730008       -3.6817084648       -8.1307887656
 H         0.3913798359       -4.5274119001      -10.2366655122
 H        -1.1843946372       -5.2423074592      -10.8286562539
 H         3.4180520696       -7.5238467176       -7.2699177535
 H         3.5308417000       -7.8228933498       -8.9652225484
 H         4.5784841293       -9.5904462426       -7.8526873483
 H         3.1807382150      -10.2518173361       -8.4945406590
 H         0.5951593762      -11.8724469751       -5.5314201255
 H         1.4188037510      -13.3408307689       -4.9351655052
 H        -0.6538507986      -13.9518362858       -6.2930189812
 H         0.8019575932      -14.4583541016       -6.9961045566
 H        -3.3939416927      -12.5362460339       -7.8196990299
 H        -4.0612019062      -13.4124367829       -9.0937758817
 H        -5.5342827581      -11.9210774953       -9.3668613247
 H        -4.1887211964      -11.0312445355      -10.2183264184
 H        -6.7324059145       -7.3454228869       -9.4761334735
 H        -8.3954760606       -7.7230608945       -9.0329757057
 H        -8.7175530459       -7.3864723354      -11.1845559156
 H        -8.5289892112       -9.0966654411      -11.1840978209
 H        -8.5556402090       -5.3707633237      -14.9386725432
 H        -7.0168576189       -4.3626358878      -14.6901244577
 H        -8.7204512709       -2.8239321520      -14.1339105020
 H        -8.1657413966       -3.4217214945      -12.5890007952
 H       -12.3433551081       -5.5364038312      -11.1495481516
 H       -13.4112495164       -4.7092606217      -12.0861633952
 H       -13.4542364783       -4.2473199549      -10.4464165454
 H       -10.6109205124       -1.1034100050      -13.6730104301
 H        -9.6168109349       -1.6001615039      -12.3502567603
 H       -11.1050701768       -0.9772087992      -11.9325241978
 H       -12.2565236150       -2.3076735675      -14.4974445816
 H       -13.2835250059       -2.5234200763      -13.2147240280
 H       -12.7513770897       -4.0289134617      -14.1480054031
 H        -6.3286045196       -6.8528813073      -15.4291216869
 H        -6.2048061719       -8.5529492693      -14.9843519380
 H        -5.2038620093       -7.5754932590      -14.0222225442
 H        -9.4864489666       -7.5393229718      -13.4894566130
 H        -8.7444501959       -8.9760261553      -14.0764795148
 H        -8.9318944979       -7.5778010684      -15.2061954137
 H        -7.9219793363      -10.8857364465       -6.9651434678
 H        -6.4351039339      -11.2034424136       -6.0841673723
 H        -6.8462526385      -12.0097300644       -7.5539572885
 H        -7.1531323359       -8.2189352778       -6.5843625507
 H        -5.6282671515       -7.8251565530       -7.4136223859
 H        -5.6312878436       -8.7752358822       -5.9309028393
 H         0.9056836561      -14.0101793217      -10.0067295604
 H         0.2138175223      -12.4888629360      -10.6973955473
 H        -0.5354554771      -14.0873671279      -11.0577211130
 H        -0.5225495890      -15.2800501091       -8.4887607671
 H        -1.7101238611      -15.4816805384       -9.6087860066
 H        -2.2849167360      -15.0316974328       -8.1440213299
 H         4.8647044159      -12.1783128364       -7.5601538301
 H         5.3452050470      -12.6773539704       -5.8834133697
 H         5.4845879748      -10.9430565444       -6.3792218480
 H         2.5233849976      -11.2195543321       -4.2768941837
 H         4.1894731755      -10.8158717461       -3.9770320996
 H         3.7037189716      -12.5567281620       -3.9992110299
 H         2.6802849827       -5.4946279421       -7.6825686069
 H         1.4298398987       -4.4029699420       -8.4532785802
 H         2.4564080778       -5.5447890723       -9.3909243583
 H         0.9021617355       -6.7752818119       -5.9730128908
 H        -0.5097399144       -7.4325686712       -6.6893693764
 H        -0.5309957993       -5.7090050487       -6.6925950343
 H        -4.6674639744       -1.7804081319       -7.4234726943
 H        -3.0119314780       -2.5917849123       -6.9455168910
 H        -4.1148694302       -3.4982622329       -7.8611126172
 H        -3.7628776782       -0.7520624976      -10.7112063705
 H        -5.0224630461       -1.2762942663       -9.5304231991
 H        -4.3488203473       -2.3572663665      -10.6768964584
 H         1.0077992990        4.8032119042       -8.8148425957
 H         0.0404817157        4.3276247628      -10.2654880591
 H         0.6274613960        3.0700864874       -9.0797113811
 H        -0.0322806804        3.1138191032       -6.9110832967
 H        -1.2931530115        4.1458043549       -6.1918585474
 H         0.3638971613        4.8872422708       -6.6123168899
 H        -2.9468752344       11.7697962618       -5.4887598852
 H        -2.3692556467       12.7486735108       -6.8716686084
 H        -1.2452514968       11.8936915137       -5.9673473919
 H        -4.1311171273        9.2212341049       -7.0873988560
 H        -4.2858830669       10.2875046544       -8.5031512591
 H        -4.6914334719       10.6728879498       -7.0258014476
 H         1.4081185384       11.2848025655      -12.5074994698
 H         0.2808325384       12.0558440298      -13.6997809090
 H         1.0879119806       10.5142900726      -13.9757289973
 H        -2.3606748452       11.0414823797      -13.6769373890
 H        -1.8297947536       12.4456303749      -12.6388235785
 H        -2.6633688056       11.1016181164      -12.0229820261
 H        -1.8001856626        3.7147184730      -14.7082077733
 H        -0.5590884217        4.4643367997      -15.7003226079
 H        -2.1432919573        3.9521948177      -16.3393721058
 H        -1.8325120225        7.8900859246      -15.5585196114
 H        -2.6510685475        6.9393044102      -16.9343705865
 H        -1.0055794667        6.7343249506      -16.6310797669
 H        -8.7070171467        5.8515887029      -12.9996691731
 H        -8.4664374497        7.5630086674      -12.9733952532
 H        -9.2494084265        6.7831431214      -11.5516854782
 H        -6.0362617512        7.3407134048      -10.1625702163
 H        -7.7140703738        7.2416206309       -9.7090222025
 H        -7.1268647243        8.5164834536      -10.8108338927
 Na       -3.3436954886        4.9912484508      -11.3205931372
 Na       -1.3172903172       -9.7176323350       -9.0131325918
