232

 C        -8.0936585062        5.0249750346       -9.5064360747
 C        -6.9287223899        5.2818658200      -10.4672860344
 O        -5.9280360069        4.6439666544      -10.5001598295
 C        -7.0525666071        6.5914718212      -11.3943660978
 C        -5.7275304234        6.7117993796      -12.3924929080
 O        -4.6770358469        7.1031077640      -11.8843660073
 C        -5.9419658351        6.6706384308      -13.9417382095
 C        -4.6517101502        6.8097770177      -14.6774183399
 C        -3.6629508936        5.6786658749      -14.3962709752
 O        -4.0847253200        4.7987058744      -13.6843958425
 C        -2.1467460311        5.6435032607      -15.0388716517
 C        -1.1684512906        6.0380058401      -13.8803337171
 O        -1.3367996854        5.7513206204      -12.6964165407
 C         0.1843916924        6.6057859794      -14.3097896825
 C         0.6194233999        7.7914798378      -13.4530906140
 C        -0.4869748976        8.9318149764      -13.3732710167
 O        -1.6126934132        8.7121519916      -13.7088587919
 C        -0.1210300262       10.4334188133      -12.8334685533
 C         0.0849098930       10.4654852259      -11.2960446265
 O         0.4530321305        9.4345503796      -10.7274207380
 C         0.0804169912       11.7641294372      -10.4962637353
 C        -0.4295775503       11.5433635328       -9.0493217246
 C        -1.8570822118       11.1018122685       -9.0436274140
 O        -2.3383248740       10.6321507518      -10.0894696673
 C        -2.5769549403       10.8787868544       -7.6392553291
 C        -1.8899306519        9.4490150956       -6.9822713129
 O        -1.5346530328        9.5098479130       -5.8427227310
 C        -2.0677419498        8.2348022562       -7.9089963073
 C        -1.4804348192        6.9123285149       -7.4646144792
 C        -1.6953617758        5.8421862952       -8.5769427562
 O        -2.4421009797        5.9828237576       -9.5171073741
 C        -1.1029915450        4.4238160663       -8.2909985351
 C        -1.8384923772        3.2022066375       -9.0178757539
 O        -2.4509343436        3.3098701972      -10.0653352058
 C        -1.6511244596        1.7888398159       -8.4451909798
 C        -2.4933886275        0.7666284388       -9.1464274097
 C        -2.4053559411       -0.6364317730       -8.5078411594
 O        -1.6566287021       -0.8057322115       -7.5461704060
 C        -3.2765667715       -1.8139105612       -9.0716598379
 C        -2.3246981796       -2.9340730136       -9.7374707046
 O        -1.9233055526       -2.7849080590      -10.8481803990
 C        -1.9615218504       -4.3595842800       -8.9945819100
 C        -0.9548636301       -5.2437141678       -9.8254898740
 C        -0.6028196159       -6.5433820394       -9.1275344938
 O        -1.4610480593       -7.4131002050       -9.0976612258
 C         0.7532294375       -6.6401318040       -8.2857090983
 C         1.4740899556       -8.0710925383       -8.3770628712
 O         0.9701425123       -9.0613801637       -8.8748739743
 C         2.8851314668       -8.1048751748       -7.8332254611
 C         3.4333289535       -9.4444887642       -7.5076157808
 C         2.9939689134      -10.1483566360       -6.2333067446
 O         2.5101609454       -9.5291721040       -5.3148257167
 C         3.4148474848      -11.6407326190       -6.0356096067
 C         2.5924330371      -12.5343458519       -6.9012845868
 O         2.4557636854      -12.4274037512       -8.0880391928
 C         1.6857148221      -13.5698990226       -6.1797554458
 C         0.5613071372      -14.0353679612       -7.1567264337
 C        -0.3069929224      -12.9266670488       -7.8491125352
 O        -0.8036957451      -12.0284586369       -7.1905741691
 C        -0.8830231210      -13.2110575460       -9.2651242986
 C        -2.0451855106      -12.1865724348       -9.6292878041
 O        -1.7129421022      -11.1700844954      -10.2058016123
 C        -3.3716927194      -12.4268978506       -9.0629761453
 C        -4.4339833353      -11.4667877974       -9.4960888949
 C        -4.5874327483      -10.2111226413       -8.4873665514
 O        -3.6657231128       -9.4901627615       -8.2731119865
 C        -6.0165935931      -10.0514500957       -7.6926379062
 C        -7.0642336191       -9.5810904799       -8.7782977652
 O        -7.9439032398      -10.3726236056       -9.1577195257
 C        -7.0033802859       -8.1590227420       -9.3891439010
 C        -7.9213412787       -8.0450942936      -10.6882299337
 C        -6.9390555966       -8.0409712612      -11.9692980182
 O        -6.0166874042       -8.8404792689      -12.1354400522
 C        -7.4466902164       -7.2199462341      -13.2897346358
 C        -7.7394991371       -5.7298170490      -12.8578030294
 O        -7.4996884011       -5.2961991754      -11.7235896566
 C        -8.0116424239       -4.8173642282      -14.1130094584
 C        -8.8117822364       -3.6130133488      -13.7697852653
 C       -10.0463396742       -4.1385768077      -12.9977046284
 O       -10.1123050944       -5.2881502551      -12.6431940982
 C       -11.2465127240       -3.1340891957      -12.8270899448
 C       -12.0714878620       -3.6549739368      -11.6631516319
 O       -12.0562956086       -3.1921870939      -10.5361496712
 C       -12.9394087368       -4.9268960119      -11.8469193095
 C       -10.6044858849       -1.7418088596      -12.4222513788
 C       -12.1845426920       -3.0109333896      -14.0720199379
 C        -6.5720253753       -7.5001760632      -14.5730758218
 C        -8.8281888457       -7.8114198295      -13.5201112186
 C        -6.4484199667      -11.3812856143       -7.0892110626
 C        -5.9270718767       -8.9983700105       -6.5765861286
 C         0.3633992877      -12.9940030549      -10.3568874785
 C        -1.4510106798      -14.6376943147       -9.3817777859
 C         4.8988874202      -11.9569800628       -6.5389461735
 C         3.3090818284      -11.8856193656       -4.5612807433
 C         1.6572166559       -5.4574878483       -8.4585348789
 C         0.2661368323       -6.5560293753       -6.8363386621
 C        -4.0363521848       -2.2906914219       -7.7736324064
 C        -4.3425108493       -1.3591944546      -10.0093004154
 C         0.3521414598        4.4751019974       -8.8521665936
 C        -0.9977718506        4.1464418347       -6.7556351827
 C        -2.2448202974       12.0695880651       -6.6894106526
 C        -4.1173039191       10.6326456186       -7.8098670206
 C         1.3198092913       10.8999718090      -13.3376325379
 C        -1.3346836352       11.2835407491      -13.2293598101
 C        -1.8978822956        4.1519783283      -15.1779854644
 C        -2.0137042640        6.5208390062      -16.3104056589
 C        -8.3871632367        6.7348682163      -12.1891006586
 C        -6.9958375702        7.8788126008      -10.3515835409
 H        -8.1368596526        4.0072900852       -9.0517675719
 H        -9.0401523819        5.2709589726       -9.9678481867
 H        -8.0267244982        5.7966081565       -8.7035557532
 H        -6.6272153702        7.4702424434      -14.2909713952
 H        -6.3805139821        5.7408854161      -14.2362167973
 H        -4.1816693293        7.7697841987      -14.4796972091
 H        -4.8510071706        6.8363049488      -15.7713115020
 H         0.3172937396        6.7803154233      -15.3855995880
 H         0.9958734482        5.8639932799      -14.0676688927
 H         1.4899986348        8.1028187747      -13.9705895827
 H         0.6605495315        7.5030558728      -12.3885295340
 H        -0.3616339072       12.5954017263      -10.9614694228
 H         1.1580502349       12.0460004161      -10.4211084875
 H        -0.4091692797       12.5202370946       -8.4889668851
 H         0.1384878287       10.8696289959       -8.4833982550
 H        -1.5491015183        8.4828152405       -8.8894116350
 H        -3.1302195278        8.0754679401       -8.2191002355
 H        -2.0750571815        6.4159266265       -6.7081817938
 H        -0.4094178946        7.0361411774       -7.1928206895
 H        -1.8177767779        1.7020717364       -7.3509614290
 H        -0.6565161188        1.5471376311       -8.7207941545
 H        -2.3075295778        0.6747409327      -10.2109621185
 H        -3.6195688216        0.9990123290       -9.1777365291
 H        -3.0894800020       -4.8075504557       -8.8813722178
 H        -1.6670770291       -4.1490416007       -7.9727636524
 H        -0.1156101787       -4.5770878697      -10.0330831001
 H        -1.2231192005       -5.4459274388      -10.8829953882
 H         2.9147652684       -7.4293546836       -6.9477031909
 H         3.6301973208       -7.6696929809       -8.5470527447
 H         4.5430107777       -9.3135915858       -7.4188939276
 H         3.3666707682      -10.1582961690       -8.3379135877
 H         1.2592912014      -13.1682109795       -5.1511186247
 H         2.2431024705      -14.4361833799       -5.7723248444
 H         0.0131880217      -14.6977279744       -6.5900297189
 H         0.9898048004      -14.7753771765       -7.8422958339
 H        -3.2990878166      -12.2282001785       -8.0059728149
 H        -3.7115482760      -13.4114232672       -9.1185770229
 H        -5.3942560313      -12.0418520858       -9.6694683239
 H        -4.1280303525      -11.0158018395      -10.4616810701
 H        -5.9851028345       -7.9231059693       -9.7289423334
 H        -7.3578190698       -7.3863639116       -8.6931409785
 H        -8.4385801420       -7.1583269830      -10.7927882489
 H        -8.4867733878       -8.9259998753      -10.7136463635
 H        -8.4294588229       -5.4638237337      -14.9004105297
 H        -7.0730023885       -4.5254109040      -14.4259819321
 H        -9.0885975734       -3.0781556131      -14.6840155308
 H        -8.1581112826       -2.9639034984      -13.1595942852
 H       -12.9619028772       -5.6178230373      -11.0337450224
 H       -12.6642436445       -5.5027765481      -12.7007202083
 H       -13.9506416704       -4.5748767539      -12.1974707862
 H        -9.9314895682       -1.5916067642      -13.1719638720
 H       -10.1356773068       -1.7730701514      -11.4384454707
 H       -11.2081537394       -0.8002877779      -12.4249470119
 H       -11.6326905263       -2.6430248367      -15.0155096263
 H       -12.9618581282       -2.2537990541      -13.8614512898
 H       -12.6204378986       -3.9477623444      -14.3643951241
 H        -7.1600036373       -7.4390320567      -15.5024251815
 H        -6.3321897947       -8.6426153715      -14.5283217594
 H        -5.7088864271       -6.8347583433      -14.7617810906
 H        -9.6299536303       -7.5277471248      -12.7687100286
 H        -8.7263426646       -8.9235575331      -13.5589557941
 H        -9.1589891762       -7.4839621638      -14.4610137842
 H        -7.1027556929      -11.1902870810       -6.2467747880
 H        -5.6361076225      -11.9877420432       -6.7337116986
 H        -6.9535218167      -12.0338272139       -7.7635922849
 H        -6.9040368132       -8.7336533662       -6.1525185600
 H        -5.3362006125       -8.0797719727       -6.7893627895
 H        -5.3507455876       -9.4998194978       -5.8039695977
 H         0.7344282791      -13.9591472957      -10.5750426724
 H         1.0570245247      -12.3165816956       -9.9095330906
 H        -0.0979204109      -12.6163122793      -11.2767872415
 H        -0.6763897056      -15.3218148727       -9.3343531480
 H        -1.9994358043      -14.7731590072      -10.2983356442
 H        -2.0978830971      -14.8550743299       -8.5280520733
 H         4.9128555940      -12.0212880614       -7.5957451748
 H         5.2951101195      -12.7598710330       -5.9640068711
 H         5.4249159122      -11.0810156182       -6.1880014480
 H         2.3247166134      -11.6006525291       -4.2065198187
 H         4.0399027603      -11.2102538674       -4.1692728488
 H         3.6652712301      -12.8941753728       -4.5212063480
 H         2.3792333527       -5.5427268154       -7.6628178448
 H         1.1195917976       -4.5418064825       -8.2971004009
 H         2.0794222785       -5.4804577517       -9.4566076445
 H         1.0997214722       -6.7222508513       -6.0868013000
 H        -0.6728307185       -7.1315457735       -6.6527587986
 H         0.0674293640       -5.4890967392       -6.6198199695
 H        -4.5763637619       -1.4520448243       -7.3762501657
 H        -3.3095904009       -2.5661407094       -6.9150721952
 H        -4.6225745875       -3.1885794771       -8.0261628804
 H        -4.0215315680       -0.9044921620      -10.8745871051
 H        -5.0192119969       -0.8260235343       -9.4092334186
 H        -5.0108711325       -2.1555341729      -10.3757450066
 H         0.7434656290        5.5100747260       -8.7441752658
 H         0.2494725960        4.3954254135       -9.9203364657
 H         1.0082578193        3.7536231863       -8.3763824672
 H        -0.1756910136        3.4016054559       -6.7476803795
 H        -1.9524304207        3.8825707316       -6.3263137564
 H        -0.5736545353        5.0825848515       -6.4409628760
 H        -3.0679097048       12.1058540323       -5.9584847265
 H        -2.3244738654       13.0085855831       -7.1800958573
 H        -1.2351543777       12.0195901120       -6.3119095799
 H        -4.4810540137       10.3029104598       -8.7467991795
 H        -4.8271683772       11.2957586423       -7.4597153758
 H        -4.2748017998        9.7077962856       -7.2240567830
 H         1.2945477537       11.9716430604      -13.5625485483
 H         1.7286305331       10.3426562291      -14.1672308108
 H         1.9596421491       10.7945389589      -12.4716142378
 H        -1.2601417749       11.6524335593      -14.2513855336
 H        -1.4064253767       12.1901480842      -12.6027868070
 H        -2.3653435380       10.8778893263      -13.2262532207
 H        -1.8641285090        3.7716232881      -14.1530697157
 H        -1.0695582801        3.9391773716      -15.7555629960
 H        -2.7424479126        3.6872349390      -15.6522915198
 H        -1.8099393669        7.5178768771      -16.0043438562
 H        -2.9819128822        6.5826816508      -16.8778687456
 H        -1.2428069847        6.0547231261      -16.8742550615
 H        -8.9685552048        5.8085584137      -12.2424234196
 H        -8.1842488026        7.1296753460      -13.2081296004
 H        -9.0507736391        7.4725855190      -11.7154022679
 H        -6.0373058222        8.1424289485      -10.0248416210
 H        -7.7435805347        7.6930551086       -9.6441479947
 H        -7.4307562792        8.6126771360      -10.9606191170
 Na       -3.4212405240        5.1827599699      -11.3750634658
 Na       -1.1177959230       -9.7381703194       -8.4803034711
