232

 C       -21.5313615188       -7.6389723191       -3.0098541434
 C       -21.0180063865       -6.1930884187       -3.3161690559
 O       -20.5016367983       -5.5489423806       -2.3967905670
 C       -20.9679369789       -5.8252237282       -4.8761468059
 C       -20.3311381553       -4.3917954332       -5.0417715426
 O       -20.4217213805       -3.5698156603       -4.1884992497
 C       -19.6120859104       -4.0122767579       -6.4400623142
 C       -18.2256631695       -4.6544525475       -6.5904996345
 C       -17.5135475822       -4.3773488198       -5.1927540934
 O       -17.8457162632       -5.0471221755       -4.2445751926
 C       -16.4588693908       -3.2050528902       -5.1098231860
 C       -16.4497574950       -2.7733864381       -3.5955588587
 O       -17.4396227674       -2.1421188012       -3.2591918414
 C       -15.3176298118       -2.8370685333       -2.6413695044
 C       -15.5498707034       -2.5507021650       -1.2095905347
 C       -15.7576848984       -3.8754778738       -0.3668741732
 O       -16.5829545850       -4.7334093488       -0.7098343654
 C       -14.8315548015       -4.0137150101        0.8660865885
 C       -13.3498874031       -4.2363382483        0.4244889463
 O       -12.5103600280       -3.3543653653        0.6969330912
 C       -12.8270286581       -5.5209632842       -0.2859216649
 C       -12.3068412310       -5.1194821550       -1.6909908375
 C       -12.7653673263       -6.0371700997       -2.7541923227
 O       -13.9115745006       -5.9303014705       -3.2749772417
 C       -11.8296346522       -7.0181761043       -3.2996712416
 C       -10.4876845030       -6.4479452544       -3.8574457484
 O       -10.1218360132       -5.3480543095       -3.4599410358
 C        -9.5492862098       -7.3521750738       -4.6202731661
 C        -8.1857165601       -7.2780201568       -3.8728478488
 C        -7.4592390200       -6.0254770379       -4.3824425386
 O        -7.7881025408       -5.5017214167       -5.4186837601
 C        -6.2883580214       -5.4194627717       -3.6158324323
 C        -5.0374171172       -6.1642985211       -4.3278515571
 O        -4.6665044292       -7.2594825559       -3.9205959267
 C        -4.3556697864       -5.4307983903       -5.5594467114
 C        -2.7949858033       -5.3860047458       -5.3025063658
 C        -2.0654230529       -3.9980878873       -5.3219359808
 O        -2.6078657556       -2.9173504288       -5.2031339622
 C        -0.4856178814       -4.0586841565       -5.7248143947
 C        -0.5008413157       -4.5002752973       -7.1896861637
 O        -0.6857700754       -5.6840221036       -7.4094852050
 C        -0.1910369807       -3.5568754326       -8.3373351250
 C        -0.1189401238       -4.2878433952       -9.6759338523
 C         1.2842945494       -4.7889991762       -9.9370505706
 O         2.2102723435       -4.8169332555       -9.1474936907
 C         1.6978173036       -5.2987168370      -11.4093671014
 C         1.5719691531       -4.1304998668      -12.4160390141
 O         0.7864366690       -4.1816516633      -13.3692992659
 C         2.5420341351       -2.9613855065      -12.2063623189
 C         2.2150724601       -1.6518743529      -13.0252366364
 C         3.4126234821       -0.7160666888      -12.8533124292
 O         3.6196794665       -0.0028736367      -11.9214618178
 C         4.6785268362       -0.8630486999      -13.8876462742
 C         4.6859180954        0.3038599895      -15.0189489341
 O         5.5060640984        0.2986922684      -15.8835423168
 C         3.7985437766        1.5755794256      -14.6757045273
 C         4.4856836709        2.5285943130      -13.6693746716
 C         6.0164783761        2.6742593363      -13.8561317862
 O         6.6601997254        2.1919832678      -14.7538508510
 C         6.6008778473        3.7392123177      -12.9349089000
 C         6.4253991349        5.1459129212      -13.6413039153
 O         6.0484938921        6.1739474169      -13.1172790610
 C         6.8725633012        5.0918875996      -15.0942276577
 C         6.5160330297        6.3487790896      -15.9206154073
 C         5.9143450818        6.0326562688      -17.3638433649
 O         5.6749560964        4.8578583246      -17.7559317542
 C         5.7184764639        7.3037074979      -18.4563445380
 C         6.8796389229        7.4396377140      -19.6036680454
 O         7.5114564567        8.4363740985      -19.7789074093
 C         6.9458954138        6.2079131860      -20.5395031976
 C         8.1325509616        6.2366054023      -21.4367061803
 C         8.0804332242        5.1053479321      -22.4065223494
 O         7.0125909282        4.6422296921      -22.8353335349
 C         9.3052805409        4.5530921134      -23.0407889336
 C         9.5658790367        3.0903349988      -22.6850500691
 O         9.6895592310        2.1923672884      -23.5040238517
 C         9.5235078553        2.8780537613      -21.1975947940
 C         8.9205998625        1.4823288098      -20.9048193769
 C         8.2975663759        1.3918198856      -19.5470682259
 O         8.0200565053        2.3203255214      -18.8114828268
 C         7.6788812883        0.0091756033      -19.0903286025
 C         6.0805420601        0.1914673263      -19.3046783474
 O         5.5765390629        1.1798901932      -18.8061679763
 C         5.2792551114       -0.7362044545      -20.2179833684
 C         7.9920220605       -1.1707338972      -20.0750439832
 C         8.0957094154       -0.3522609786      -17.6479804492
 C         9.1033720014        4.7209861920      -24.6863472106
 C        10.5569819121        5.2450256635      -22.6429278567
 C         4.3234642147        7.2557917924      -19.1702914932
 C         5.7818237669        8.6325975081      -17.6581524049
 C         5.9654476978        3.7986460664      -11.5667706335
 C         8.2113155110        3.3647386543      -12.8214694841
 C         6.0361440392       -0.6166111353      -13.1982726250
 C         4.7485339305       -2.2679522053      -14.4885716825
 C         3.0523844285       -5.9398929314      -11.3454524892
 C         0.6644839934       -6.3787575552      -11.7577864853
 C         0.1917416190       -2.7244309957       -5.4964423932
 C         0.3034003089       -4.9774943634       -4.7366329377
 C        -6.2411220779       -3.8963376967       -3.9189680713
 C        -6.1185515729       -5.6528232992       -2.1180861346
 C       -11.3549780517       -7.9832543005       -2.1608188211
 C       -12.6376614624       -7.7964146643       -4.4039656703
 C       -14.9169192855       -2.7716230913        1.7495002173
 C       -15.1832451443       -5.2840935424        1.6742237802
 C       -15.1996391900       -4.0621262357       -5.5761447434
 C       -16.7606708093       -1.9679709036       -5.9824141667
 C       -20.2883056752       -6.8327909219       -5.7478385397
 C       -22.4465848808       -5.6412042395       -5.3141732229
 H       -22.4661608626       -7.7940677628       -3.4208470020
 H       -21.5829053598       -7.5911526303       -1.9099316339
 H       -20.7856009404       -8.2931493800       -3.2769305985
 H       -19.4523483346       -2.9176634541       -6.4115754801
 H       -20.2411423016       -4.1126635877       -7.3678278645
 H       -17.6356469956       -4.2257297235       -7.4401118732
 H       -18.3231886609       -5.7161317528       -6.7847682095
 H       -14.6394233406       -1.9823341253       -2.9169319189
 H       -14.6617273904       -3.6831927703       -2.6073457116
 H       -16.4102297163       -1.8133584942       -1.0625081227
 H       -14.7330580289       -2.0277500109       -0.8787197789
 H       -13.6841573573       -6.2084126288       -0.4149991220
 H       -12.0526446194       -6.0064709738        0.3261234770
 H       -11.1894298077       -5.0674828499       -1.6406884624
 H       -12.5925125340       -4.0972655935       -1.8823786679
 H        -9.4439955075       -7.0177425456       -5.6562073539
 H       -10.0456786194       -8.3498527090       -4.7142699604
 H        -7.6212496099       -8.2320356808       -3.9750940920
 H        -8.2422235552       -7.1397698124       -2.7486618545
 H        -4.7037874947       -4.3748746967       -5.4559216788
 H        -4.7927484173       -5.8555159647       -6.5018565115
 H        -2.3572291837       -6.0581867195       -6.0485295600
 H        -2.5474502907       -5.9587088042       -4.4803001934
 H         0.6692282139       -3.0106410686       -8.0930920708
 H        -1.0087396608       -2.7927996366       -8.2368504365
 H        -0.4400529182       -3.6670920162      -10.5599029697
 H        -0.6476954565       -5.2661819536       -9.6920769049
 H         3.5945187564       -3.2530051156      -12.3564086253
 H         2.5960805027       -2.8239010115      -11.0857934537
 H         1.3149842502       -1.1872286949      -12.7500304227
 H         2.0827935550       -1.9067936128      -14.0205843160
 H         2.7599085473        1.2883009638      -14.3065144448
 H         3.5745191591        2.1368533984      -15.6489428602
 H         4.3672341696        2.2045965842      -12.6715928582
 H         4.1146115977        3.5220090075      -13.7960342389
 H         6.4107059853        4.1329463509      -15.4594856178
 H         7.9865969633        4.9326057924      -15.0875524213
 H         7.3949447474        6.9279982534      -16.0384256059
 H         5.9328090662        6.9612057704      -15.3425021057
 H         6.1258454717        6.3693429923      -21.3017282691
 H         6.9821332603        5.1851194517      -20.1775041136
 H         9.1261430354        6.2480630326      -21.0156493243
 H         8.1769126952        7.1112470119      -22.1039575502
 H         9.0810284006        3.7933336888      -20.7489455920
 H        10.5735964218        2.9851248140      -20.8280462188
 H         9.6546802298        0.6273542563      -21.0880960126
 H         7.9868023809        1.3767964858      -21.5592913938
 H         5.1774824206       -1.7171954038      -19.9078126418
 H         5.7132160506       -0.7159875596      -21.2329538187
 H         4.2630840208       -0.3453978520      -20.1695686544
 H         7.6342714189       -2.0820647696      -19.6291802621
 H         8.9859375357       -1.2082939559      -20.2988267574
 H         7.4326638577       -0.8829453260      -20.9437051227
 H         8.9023870706       -1.0983352603      -17.6245014680
 H         7.2659532288       -0.7043468002      -17.0596766450
 H         8.4669475051        0.4773535024      -17.0438362684
 H         9.9748484296        4.9476663895      -25.2962366833
 H         8.2074902559        5.3854367804      -24.7591375369
 H         8.7275380479        3.7182330750      -25.1867626123
 H        11.4224280171        4.9105376640      -23.0888683246
 H        10.7525618229        5.2209981799      -21.5931579678
 H        10.3805939784        6.2251213325      -22.9791554563
 H         3.5216137841        7.3181485630      -18.4018357054
 H         4.1611881750        6.2830777302      -19.7456618123
 H         4.3507218659        8.1025516286      -19.8037337600
 H         6.7437356785        8.7316994800      -17.2149160762
 H         4.9666923263        8.8506417968      -16.8914848691
 H         5.8270895895        9.2724059913      -18.5207903858
 H         6.6520723882        4.5132128623      -11.0250729760
 H         5.8699481738        2.8830133779      -11.0401491398
 H         5.0488319705        4.3897554809      -11.6087335659
 H         8.1165900975        2.6596100687      -11.9954008289
 H         8.7499930416        4.2565907910      -12.5402635194
 H         8.6036002359        2.7853641382      -13.6647415790
 H         6.8907505599       -0.8609793688      -13.7940208471
 H         6.0485361362       -1.1318951692      -12.2937804253
 H         6.2948123256        0.3765074432      -12.8264620254
 H         5.2368271946       -3.0566588285      -13.9144410376
 H         5.3690746894       -2.1779254523      -15.3742919701
 H         3.8160331934       -2.6178805028      -14.9011009445
 H         2.9740806545       -6.7452896040      -10.6555497741
 H         3.8410348099       -5.2563450799      -10.8853785790
 H         3.4756082606       -6.2762841427      -12.3453467801
 H        -0.3796742215       -6.0712644837      -11.6978028259
 H         0.8510872580       -6.9714036411      -10.8531181129
 H         0.9344004129       -7.0462450523      -12.6179331893
 H         0.3959578775       -2.5208965505       -4.5032495798
 H        -0.2830754505       -1.8092249947       -5.7487946007
 H         1.1705751803       -2.7719162875       -5.9752898449
 H         1.2427381955       -4.4811389915       -4.3538727609
 H         0.6008830919       -5.8964147912       -5.1506931703
 H        -0.2490887154       -5.1820674128       -3.8359103668
 H        -6.1450150769       -3.6039788483       -4.9447659991
 H        -5.4973832047       -3.3458774806       -3.4042789993
 H        -7.1635377414       -3.5477208024       -3.6202184913
 H        -6.9525653764       -5.2026110118       -1.5132545316
 H        -5.2316697824       -5.1443115458       -1.7598599234
 H        -6.1078921538       -6.6747215196       -1.8102663625
 H       -12.2138614614       -8.1933927733       -1.5799083994
 H       -10.6034049865       -7.4729190254       -1.4876922422
 H       -10.8545253450       -8.8250248428       -2.5418425560
 H       -13.6294700276       -7.9448178212       -4.0331504808
 H       -12.1138221088       -8.6131637676       -4.8164282793
 H       -12.8833487814       -7.1815830477       -5.3113221871
 H       -14.3965837406       -2.9708497591        2.7214843674
 H       -15.9737124493       -2.5649298802        1.9557414886
 H       -14.4711558154       -1.8817151727        1.3547339001
 H       -14.9019476552       -6.1349204566        1.1017783989
 H       -16.2336305822       -5.4587936267        1.6759775481
 H       -14.8120694615       -5.1702407778        2.6604634186
 H       -15.5509660260       -4.8585311044       -6.2846830050
 H       -14.6862495490       -4.4474115061       -4.7747204727
 H       -14.5579075170       -3.5561138711       -6.2789088329
 H       -17.5686829874       -1.4318299887       -5.6263030916
 H       -16.9647264412       -2.3492041414       -7.0543984886
 H       -15.7997052608       -1.3111316089       -5.9126182528
 H       -19.2867867597       -7.1627202396       -5.3511268324
 H       -20.1042767310       -6.5965258582       -6.7479917506
 H       -20.8972702405       -7.8037841211       -5.7738921807
 H       -23.1251591937       -5.7464737344       -4.4222181979
 H       -22.7005687211       -6.1881641422       -6.2182449143
 H       -22.6878135202       -4.6081013796       -5.5319409030
 Na      -18.5706178028       -4.1353277106       -2.3496233236
 Na        6.3051905923        2.4337996000      -17.1341925558
