232

 C        -7.6815696094        5.2296596014       -9.3363887365
 C        -6.6853139911        5.5897594142      -10.4517324148
 O        -5.6853529181        4.8828150075      -10.6951896779
 C        -7.0598783327        6.8706571392      -11.2245990221
 C        -5.7678663937        7.1159123588      -12.2088131817
 O        -4.7718746301        7.5353036687      -11.6793829545
 C        -5.8542998654        6.7154597891      -13.7118164853
 C        -4.4414604383        6.8213662757      -14.5194179120
 C        -3.5490523327        5.5798222333      -14.2430825115
 O        -3.9140099126        4.6678881661      -13.4980052782
 C        -2.1360412818        5.4524081809      -14.9915778692
 C        -1.0949959766        6.0006830510      -13.7900459277
 O        -1.4113138059        5.7406555431      -12.6325282182
 C         0.2342388930        6.5589426034      -14.0782337935
 C         0.6081651224        7.8367613904      -13.3013629326
 C        -0.4412220773        8.8917221341      -13.3756148512
 O        -1.5352239379        8.6679158317      -13.9048320750
 C         0.0143561553       10.3518678384      -12.8894646197
 C         0.2972841118       10.4084221334      -11.3742340550
 O         0.7696050220        9.5060856756      -10.7310858078
 C         0.0509551980       11.7269780878      -10.6618703775
 C        -0.4877550238       11.7614383067       -9.1920753688
 C        -1.8748279663       11.1167742453       -9.1515659034
 O        -2.4573579261       10.8333353253      -10.1552464485
 C        -2.5167278203       10.8859999269       -7.8205616358
 C        -2.1051912026        9.4389825375       -7.1358807743
 O        -1.5956626790        9.3485082164       -6.0554018563
 C        -2.4196619585        8.2110438462       -8.0339722975
 C        -1.8378876984        6.9096955361       -7.4264422664
 C        -1.8836893120        5.7032433045       -8.4828462905
 O        -2.5329077171        5.8567696485       -9.4758866089
 C        -1.1275151530        4.3197633222       -8.2605990256
 C        -1.7572125259        3.1281718318       -9.0758985928
 O        -2.2147769646        3.2121074312      -10.1765936541
 C        -1.5873651661        1.6979106011       -8.4893629039
 C        -2.5563132724        0.6162238031       -9.2463800837
 C        -2.4115623135       -0.7596209994       -8.6438426567
 O        -1.6002572925       -1.0027061285       -7.7908071120
 C        -3.3074327261       -1.9107663648       -9.0547899561
 C        -2.4282688184       -2.9236982638       -9.7589936849
 O        -2.0984066169       -2.6633734795      -10.9142818318
 C        -2.0570540654       -4.1883462463       -8.9882796750
 C        -1.2143901332       -5.2315381212       -9.7258619624
 C        -0.7567917706       -6.4743468739       -8.8453522894
 O        -1.5977849004       -7.3493991131       -8.7996008622
 C         0.5286502221       -6.6671285528       -8.0221160916
 C         1.3947150041       -8.0634311881       -8.2739166462
 O         0.8892327763       -9.1052282608       -8.6382458759
 C         2.8595248874       -8.0324797200       -7.7958569446
 C         3.4254027488       -9.5500887381       -7.6703376555
 C         3.0402860763      -10.0881476318       -6.3009880518
 O         2.3722571537       -9.3993949969       -5.5821404371
 C         3.4826552065      -11.6316143238       -5.9968303099
 C         2.4586581732      -12.4712234543       -6.8876458898
 O         2.4999018075      -12.1624268846       -8.0881857675
 C         1.4600975036      -13.4740072047       -6.3479381549
 C         0.5209990901      -14.0568619169       -7.4507410520
 C        -0.3938458510      -12.9924464270       -7.9309298638
 O        -0.6016057625      -12.0350310660       -7.2041800320
 C        -0.9207491346      -13.1291773218       -9.4255026555
 C        -1.9855147199      -12.1089522738       -9.6521944508
 O        -1.7084225482      -10.9855446211      -10.0818287906
 C        -3.4074253144      -12.5018007016       -9.4025171054
 C        -4.4662947907      -11.2676140511       -9.6029152472
 C        -4.4787891969      -10.2768147795       -8.4656054953
 O        -3.5630620280       -9.4385965211       -8.2676304431
 C        -5.8177629392      -10.1173103066       -7.6999441841
 C        -6.9307518491       -9.5946353527       -8.7301917898
 O        -7.8708375850      -10.2761858462       -8.8944524320
 C        -6.7565096471       -8.2615342453       -9.2795068377
 C        -7.7671511802       -8.0893557864      -10.4671940772
 C        -6.9494413826       -8.2374392566      -11.9135603843
 O        -5.9211181306       -8.8513405146      -12.0437544106
 C        -7.5891929813       -7.3799470183      -13.1048048180
 C        -7.7727811029       -5.8080358869      -12.8418879004
 O        -7.3585010537       -5.2569324056      -11.8545169244
 C        -7.9966325132       -4.9739134454      -14.1757004196
 C        -8.7991872864       -3.7136190692      -13.7468237089
 C       -10.0914998217       -4.1201089453      -12.8942326238
 O       -10.0939243451       -5.2590011836      -12.4335330129
 C       -11.3030895861       -3.0037983351      -12.7941783422
 C       -12.2877501051       -3.7052495802      -11.7140107245
 O       -12.3865795362       -3.3239379763      -10.5860060164
 C       -12.9879181656       -4.9480666291      -12.0904794332
 C       -10.9330517864       -1.5716531184      -12.2366350453
 C       -11.9508836009       -3.0166274450      -14.2140625148
 C        -6.5913625927       -7.4844450314      -14.2769393671
 C        -9.0354159583       -7.9554986043      -13.4048346870
 C        -6.2734087973      -11.4892574162       -7.2171021344
 C        -5.6118926169       -9.1529208567       -6.4675891354
 C         0.2852652598      -12.8679763078      -10.3157777003
 C        -1.3720033949      -14.5690224590       -9.6344574145
 C         4.9641234447      -11.8075800967       -6.5348104193
 C         3.3775626263      -12.0883988705       -4.5330645694
 C         1.5458952628       -5.5912158945       -8.5369332067
 C         0.0192347790       -6.6200684915       -6.5456273146
 C        -3.9883366625       -2.4741299754       -7.8093072238
 C        -4.3581684642       -1.5011125148      -10.1278298937
 C         0.2924094081        4.4431730275       -8.8548347472
 C        -1.0180683519        3.9727885518       -6.7137312857
 C        -2.1005150713       12.0421904951       -6.7838730131
 C        -4.0279105190       10.9065792058       -7.9795699002
 C         1.4072012133       10.7437669120      -13.5491885571
 C        -0.9739908148       11.3783632605      -13.5888075693
 C        -1.9490022727        3.9606506821      -15.4289674965
 C        -1.9951727120        6.3449456707      -16.3287403746
 C        -8.3491808155        6.5569366683      -11.9802835342
 C        -7.0807255771        8.1199708631      -10.2879217766
 H        -7.7056533026        4.1677246734       -9.2291117874
 H        -8.7159371251        5.5755306999       -9.5066479256
 H        -7.4107661126        5.7086101655       -8.4198139981
 H        -6.4180662554        7.5018392696      -14.2043919564
 H        -6.4940009120        5.7608889624      -13.7901379743
 H        -3.9836168096        7.7765038824      -14.2018353078
 H        -4.5801109660        6.9383649118      -15.5852327855
 H         0.2090877250        6.6952198462      -15.1609746047
 H         0.9493091524        5.7862255489      -13.8870189889
 H         1.3572593305        8.3685722916      -13.9602047560
 H         0.7820704309        7.6304464829      -12.2361554861
 H        -0.7320329922       12.2714546689      -11.3068751791
 H         0.9516416927       12.3482900543      -10.7165194921
 H        -0.6039260517       12.7974643237       -8.9402326939
 H         0.2388354715       11.2558802298       -8.4503727182
 H        -2.0043379090        8.3340163209       -9.0250405368
 H        -3.5162660820        8.1038456398       -8.1672315272
 H        -2.3509913658        6.6306072501       -6.4910823968
 H        -0.7863271429        7.1026295133       -7.2909959949
 H        -1.9145175782        1.8486386123       -7.4372863137
 H        -0.5291146205        1.3357063646       -8.6769956283
 H        -2.2299693330        0.5663140175      -10.3148442918
 H        -3.5730117349        0.8244350904       -9.3083357612
 H        -2.8868552808       -4.5774678036       -8.4956813622
 H        -1.4977063626       -3.7214188761       -8.1532234378
 H        -0.4605344726       -4.7767165339      -10.3633625820
 H        -1.7766574627       -5.7002090513      -10.5010864070
 H         2.9346389541       -7.4924966063       -6.8662769983
 H         3.4664234319       -7.5269834819       -8.5121345768
 H         4.4787218654       -9.6137778096       -7.8158540671
 H         2.9798819493      -10.2842960926       -8.3547592067
 H         0.8405283912      -12.9114907438       -5.7131454847
 H         1.9072236107      -14.1838688746       -5.6877721618
 H        -0.2075367902      -14.7999479344       -6.8995048651
 H         1.0067315929      -14.7922362720       -8.0761928836
 H        -3.5949214164      -13.0273529332       -8.4115698625
 H        -3.6846245575      -13.2915862225      -10.1917743763
 H        -5.4839387482      -11.5956121330       -9.6559290288
 H        -4.1826193184      -10.8935621495      -10.5885116390
 H        -5.7742894278       -8.1936946629       -9.7434728110
 H        -6.9041412003       -7.4184967104       -8.6129245275
 H        -8.3319152038       -7.1162871686      -10.3994419448
 H        -8.3838458190       -9.0215568942      -10.4210112589
 H        -8.3197387576       -5.5818446514      -15.0272409517
 H        -6.9176865676       -4.7214510805      -14.4815276634
 H        -9.0040094293       -3.0308548123      -14.5758363185
 H        -8.1002008689       -3.2048506004      -13.0743676091
 H       -13.5864426094       -5.0508805777      -11.1472984437
 H       -12.4127596281       -5.8920384147      -12.2330640768
 H       -13.6138449998       -4.9614379873      -12.9323144099
 H       -10.9579596798       -0.6853114238      -12.9894689542
 H        -9.9682496975       -1.6697327811      -11.7282891569
 H       -11.6404944060       -1.3026781208      -11.4975371373
 H       -11.3188681980       -2.4933664667      -14.8584868283
 H       -12.9547021358       -2.7209498852      -14.3191163068
 H       -11.8282156584       -4.0136123368      -14.6309445982
 H        -6.9680733249       -7.3407461742      -15.2621005139
 H        -6.2264056640       -8.4430751837      -14.1904154296
 H        -5.8226899296       -6.7638492334      -14.2249578730
 H        -9.5026929755       -8.0488596341      -12.4996833452
 H        -8.9320820274       -8.9503833727      -13.7629643711
 H        -9.7177988812       -7.3321038441      -14.0526916198
 H        -7.2502855142      -11.5203448125       -6.7218094754
 H        -5.5660680889      -11.8337040819       -6.4496792693
 H        -6.1578745221      -12.2937210163       -7.9649855414
 H        -6.4561777471       -9.2650563802       -5.7930937074
 H        -5.5627841348       -8.1241773072       -6.7140308045
 H        -4.7232825215       -9.4171373553       -5.9200689253
 H         1.1221461376      -13.4144674293       -9.7996835248
 H         0.4079440605      -11.7950805925      -10.3364447454
 H         0.0593213327      -13.3313331307      -11.2768298233
 H        -0.5476079524      -15.2721443208       -9.3641117060
 H        -1.6045969065      -14.5946674979      -10.6901714406
 H        -2.1865124114      -14.9290262630       -9.0077150215
 H         4.9033380053      -11.9213560604       -7.6659239806
 H         5.2354803716      -12.7520642647       -5.9905475790
 H         5.6580418687      -11.0026003606       -6.2119291453
 H         2.3242712418      -11.9547367682       -4.4271648275
 H         3.9646016616      -11.3913194852       -3.9289926346
 H         3.6844562079      -13.1385998426       -4.5106633476
 H         2.4275316304       -5.5624839697       -7.8927446615
 H         1.0693426421       -4.5857453277       -8.6074927610
 H         1.7957460663       -5.9329199257       -9.5455009169
 H         0.8707076009       -6.4621757362       -5.9201489354
 H        -0.4414533738       -7.5300423376       -6.3974791209
 H        -0.5989359848       -5.7862054844       -6.2371875971
 H        -4.6524005632       -1.6849115448       -7.3833794941
 H        -3.3383191885       -2.6120996523       -7.0240918556
 H        -4.5967137830       -3.3280898376       -8.0704069508
 H        -3.8671876645       -0.9089783863      -11.0031947880
 H        -5.3132940598       -1.0271798913       -9.7253906273
 H        -4.7543401191       -2.3718451975      -10.6175701444
 H         0.8385532329        5.2511046561       -8.4032240283
 H         0.2360479926        4.6401817348       -9.9369450622
 H         0.7758617812        3.4820688133       -8.6042957903
 H        -0.6822985525        2.9736083919       -6.5654450587
 H        -2.0457775501        4.1426840932       -6.4909841533
 H        -0.3036428202        4.6559474517       -6.2592720746
 H        -2.3301220496       11.7637882623       -5.7750187500
 H        -2.7714119737       12.9548347487       -6.9325661011
 H        -1.0247749685       12.3095623276       -6.9904780956
 H        -4.2479623696       11.5071121952       -8.9178411869
 H        -4.5257628081       11.6288662303       -7.2509623970
 H        -4.7591520883       10.0779806474       -7.9147365451
 H         1.5016887445       11.8293389727      -13.3858455761
 H         1.3148654547       10.6281092657      -14.6362739045
 H         2.2707358440       10.1354212901      -13.2077632262
 H        -0.9647622323       11.4790423899      -14.6855658606
 H        -0.9247392450       12.4059545766      -13.2313488240
 H        -2.0032690129       11.1145716114      -13.3646645497
 H        -2.2183492050        3.2638317224      -14.6220358705
 H        -0.8877530981        3.7361643172      -15.6810443136
 H        -2.5191037833        3.7786386300      -16.3071304119
 H        -2.0036950896        7.4361256582      -16.0567316324
 H        -2.8353492134        6.1884398522      -16.9266090140
 H        -1.0988259284        5.9959549528      -16.8247163650
 H        -8.5835441708        5.4912303850      -12.0299117909
 H        -8.4558973668        7.1038160844      -12.8950409336
 H        -9.1404117347        6.9273457523      -11.3214896327
 H        -6.0420486491        8.0259695752       -9.7894971416
 H        -7.9834538173        8.0131028310       -9.6294482525
 H        -7.2476747710        9.0453569452      -10.8713100792
 Na       -3.5541109265        5.3196788181      -11.4729557658
 Na       -1.2566810772       -9.8488100921       -8.2464702697
