232

 C        -7.1338795679        5.4777752959       -8.8724532352
 C        -6.4530478807        5.8308093531      -10.2510605619
 O        -5.4697674234        5.1483374539      -10.6116967720
 C        -6.8789388081        7.0805549194      -11.1440650974
 C        -5.6009567645        7.3280188702      -11.9704882590
 O        -4.6927416897        8.0343328255      -11.5997566486
 C        -5.5836734155        6.7856524760      -13.4782346863
 C        -4.2310114487        6.8706891345      -14.1785489790
 C        -3.6161438963        5.4689099593      -14.2398057772
 O        -4.1801125536        4.4499998518      -13.7805690573
 C        -2.1626218241        5.5020872605      -14.7990511971
 C        -1.1332779886        5.9416845358      -13.6601444639
 O        -1.4319294854        5.8106843613      -12.5009377526
 C         0.3196714497        6.4475178526      -13.8679344232
 C         0.6205768062        7.6521268596      -13.0137537582
 C        -0.2356768077        8.7644572286      -13.4716143384
 O        -1.2946924995        8.5814275406      -14.0735810918
 C         0.2963155358       10.2409994999      -13.2345941697
 C         0.3956062650       10.4684978548      -11.6280279716
 O         0.7242381816        9.4892079720      -11.0020228210
 C         0.0115826825       11.8617202660      -11.0212623616
 C        -0.3789588958       11.5113712327       -9.4837775362
 C        -1.8560268148       10.9781953622       -9.3906826907
 O        -2.5118253637       10.8782510400      -10.3727204518
 C        -2.4368208657       10.8596096484       -7.9219757874
 C        -2.1614107710        9.3174563891       -7.4514829168
 O        -1.5683688420        9.1644622421       -6.4143396730
 C        -2.7073990492        8.0774687931       -8.2300513633
 C        -1.9916269210        6.8711153979       -7.5118151077
 C        -2.0827215557        5.7299747857       -8.5208524675
 O        -2.9152931447        5.8004985534       -9.3907686736
 C        -1.2320829120        4.3772117902       -8.2897020554
 C        -1.8851273498        3.1780672370       -9.0590490503
 O        -2.2826518329        3.3149287869      -10.1712839874
 C        -1.8772929995        1.6819834579       -8.4624238033
 C        -2.4840442461        0.5883255608       -9.3965854719
 C        -2.3433491457       -0.8965427782       -8.8335348715
 O        -1.4949479894       -1.1646987757       -8.0255810169
 C        -3.3689459779       -2.0780213563       -9.1689252599
 C        -2.3918411868       -3.1235933608       -9.7346227421
 O        -2.1018745234       -3.1821571543      -10.9255072445
 C        -1.8767362266       -4.2585147975       -8.8130770554
 C        -1.3482070878       -5.3917996135       -9.6556196904
 C        -0.8604370163       -6.5812615986       -8.6838835679
 O        -1.7616046383       -7.3838381823       -8.4850779869
 C         0.4709067336       -6.5533008225       -7.8021184748
 C         1.2182096832       -7.9011372877       -7.9727281144
 O         0.6819663729       -8.9418947997       -8.2653962532
 C         2.7543813276       -7.8966045853       -7.9694814030
 C         3.3339601023       -9.3025242098       -7.7617388159
 C         2.8866538594       -9.9524015596       -6.3476268997
 O         2.1660495352       -9.3757490505       -5.5592443749
 C         3.4932612003      -11.4089976193       -6.1519143317
 C         2.4894596530      -12.3929593979       -7.0389127967
 O         2.6508061378      -12.2848062804       -8.2642243548
 C         1.3332204401      -13.3815321287       -6.4388305280
 C         0.3531563995      -13.9047227297       -7.4740325434
 C        -0.3923696441      -12.8046335754       -8.1850174248
 O        -0.5557151556      -11.7764299181       -7.5511386465
 C        -0.9691728213      -13.0720032398       -9.6595646164
 C        -2.0530417163      -11.9432417792       -9.9648288848
 O        -1.6412921066      -10.7792513013      -10.1339266516
 C        -3.5415572803      -12.3836406659      -10.0343403959
 C        -4.5243536024      -11.0805362147       -9.8985841993
 C        -4.4480619964      -10.3879936479       -8.4992733942
 O        -3.3976766775       -9.9670687028       -8.0034271324
 C        -5.7696317440      -10.2558823702       -7.6544877362
 C        -6.9584688822       -9.7082995605       -8.4752169592
 O        -7.9611701878      -10.3093418823       -8.6461536833
 C        -6.6143275214       -8.3994705746       -9.1022802869
 C        -7.5175845827       -7.8057418261      -10.3117455752
 C        -6.9194723611       -8.1433229152      -11.6963553168
 O        -5.8894204473       -8.7448296453      -11.7235631416
 C        -7.5181286748       -7.5589966931      -12.9451478709
 C        -7.5489589155       -5.9704565648      -12.8489327642
 O        -6.9780559531       -5.3569546011      -11.9950580640
 C        -8.1298345420       -5.0277202304      -13.9186115683
 C        -8.8340644379       -3.7568638017      -13.3279143042
 C       -10.1789149016       -4.1318169971      -12.6750364367
 O       -10.2133729738       -5.2214735760      -12.1371087019
 C       -11.4061579844       -3.0907595129      -12.7866327470
 C       -12.6569085190       -3.7411721124      -11.8955105665
 O       -12.9256924267       -3.3889641957      -10.7919420213
 C       -13.3435052657       -5.0461162926      -12.4101542359
 C       -10.8540090053       -1.8012081857      -12.2155311614
 C       -11.8857125219       -2.9443266874      -14.2323225937
 C        -6.7249455969       -7.9064469434      -14.2147589834
 C        -8.9773702807       -7.9798113913      -13.1659502093
 C        -6.0429010106      -11.7417612067       -7.0485904675
 C        -5.4842604545       -9.3749008996       -6.3913645531
 C         0.2227337735      -12.8341881918      -10.7285578183
 C        -1.2814414818      -14.5884732568       -9.8599881801
 C         4.8623602553      -11.8450524201       -6.6478322563
 C         3.3461341673      -11.7935222929       -4.5747324672
 C         1.3353011107       -5.2436578510       -8.1347162932
 C         0.1962321041       -6.5078981251       -6.2785410296
 C        -4.0876230917       -2.5716868205       -7.8470416278
 C        -4.4481445525       -1.6193768200      -10.2519465111
 C         0.0857598881        4.7971731006       -8.8702753532
 C        -1.2052439461        3.9500719682       -6.7548183331
 C        -1.8901768743       11.8181619775       -6.8087592766
 C        -4.0757428259       11.1037037026       -8.0081628523
 C         1.6920643326       10.5997548547      -13.9168793964
 C        -0.7381674520       11.2572952533      -13.8711858257
 C        -1.6693920295        4.0885703480      -15.1655039432
 C        -2.1443034615        6.3738159096      -16.0881388427
 C        -8.0935551415        6.7087372861      -12.0462067148
 C        -7.2360821693        8.3455941198      -10.2123034192
 H        -7.3559337839        4.4115027338       -8.8761094391
 H        -8.1159743473        6.0050221242       -8.7504944597
 H        -6.5463547953        5.8239885136       -8.0135618204
 H        -6.3429298470        7.4245695253      -13.9493488941
 H        -5.8414748634        5.7547892099      -13.6278642597
 H        -3.4354524406        7.4233027906      -13.6147095542
 H        -4.3425666735        7.3849159046      -15.1304295748
 H         0.3125496934        6.7970756365      -14.9053969133
 H         1.0050562076        5.5707341208      -13.7783383969
 H         1.6791242621        8.0718185496      -13.2408447627
 H         0.3420578346        7.5339584729      -11.9687151950
 H        -0.8292666901       12.3151135278      -11.5526127010
 H         0.9286698343       12.4426520834      -11.0845405733
 H        -0.3081883043       12.3977425325       -8.8626109832
 H         0.2588665417       10.7194422429       -9.1561353871
 H        -2.4854864493        8.0633964441       -9.3484810175
 H        -3.8155524205        8.0752886971       -8.0556346196
 H        -2.5876581070        6.6623663746       -6.5888229823
 H        -0.9934517447        7.1195079770       -7.2028234213
 H        -2.4330113326        1.7447976335       -7.5740734802
 H        -0.7939010762        1.5902660016       -8.2426754477
 H        -1.9257754283        0.5190834023      -10.3426256956
 H        -3.5042695779        1.0082520858       -9.6100714020
 H        -2.5253533479       -4.5301881203       -8.1079672224
 H        -0.9419924292       -3.9722805023       -8.1496533140
 H        -0.5718683430       -5.0534724977      -10.3618220482
 H        -2.1266304755       -5.8605406886      -10.3243283398
 H         3.0681198353       -7.2825860992       -7.1001569791
 H         3.0809810960       -7.4187548330       -8.9362425048
 H         4.4241992895       -9.3912716122       -7.7294107457
 H         2.9281256659       -9.9529726297       -8.5488340597
 H         0.7140027219      -12.7794342571       -5.8331946784
 H         1.7743154125      -14.2022313017       -5.7269260551
 H        -0.4552083825      -14.4751899322       -6.9678025502
 H         0.7946728850      -14.6713660542       -8.0468448091
 H        -3.7998319227      -13.0520418835       -9.3079200482
 H        -3.7765128554      -12.9594599823      -10.9602406868
 H        -5.5811906557      -11.3858533559      -10.0062698390
 H        -4.3189822222      -10.3808222666      -10.7892724024
 H        -5.6135973304       -8.4442281909       -9.5717169326
 H        -6.5472193989       -7.5755792061       -8.3529515695
 H        -7.6003382045       -6.7420012047      -10.2492865078
 H        -8.3991551954       -8.3046100079      -10.2566918297
 H        -8.5803534375       -5.4879276693      -14.6919793364
 H        -7.2075262833       -4.7754414024      -14.4009252506
 H        -8.9578267263       -2.9614265920      -14.1444891511
 H        -8.2381283229       -3.3243090818      -12.5662395044
 H       -14.4178970247       -5.1157970705      -12.6228495912
 H       -13.0146113244       -5.8529301101      -11.7151414314
 H       -12.8600557261       -5.4559017503      -13.2415901096
 H       -11.7181403417       -1.0911206284      -12.0884077129
 H       -10.0804544988       -1.3437271008      -12.8104960768
 H       -10.5888098028       -1.9364171042      -11.2130055927
 H       -11.1812501536       -2.4388015842      -14.8516118461
 H       -12.9339866643       -2.5147653870      -14.2884941458
 H       -12.0863808052       -3.9675798596      -14.7075792511
 H        -6.8713035173       -7.0829061623      -15.0154909175
 H        -6.9358353201       -8.8966544461      -14.5610340448
 H        -5.5855337414       -7.8400662150      -14.0400668832
 H        -9.5288747171       -7.4222757800      -12.4198012235
 H        -9.2527123445       -9.0271497520      -13.0401618124
 H        -9.3573532954       -7.5653910340      -14.1586798171
 H        -6.8949970368      -11.8363016607       -6.4344283472
 H        -5.2326168755      -12.0940082488       -6.3991686115
 H        -6.1352247393      -12.4285770157       -7.8760108724
 H        -6.4209368894       -9.0690392769       -5.9408896572
 H        -5.0006867081       -8.4444806022       -6.6821990980
 H        -4.8524011100       -9.9343907742       -5.6191711307
 H         1.1345583029      -13.0460739089      -10.1994288796
 H         0.1469841457      -11.7709629068      -11.0191823710
 H        -0.0267160181      -13.4286392483      -11.5562639276
 H        -0.2925994655      -15.1490431005       -9.7411452815
 H        -1.6495410385      -14.7086720801      -10.8375377094
 H        -1.9288085299      -15.0199201073       -9.1619992888
 H         4.9968367595      -11.4830721613       -7.6432098301
 H         4.9841448337      -12.8899204907       -6.6708606412
 H         5.5204423373      -11.3096644833       -6.0047726793
 H         2.2940207341      -11.5916333541       -4.3098682239
 H         4.1245222377      -11.3271421432       -4.0041680208
 H         3.4269219545      -12.8439085751       -4.6738441042
 H         2.3496408291       -5.2809531382       -7.7377767496
 H         0.8024737886       -4.3983414488       -7.7724654756
 H         1.4321144101       -5.2195102128       -9.2128265467
 H         1.0837881297       -6.7575282622       -5.6464792744
 H        -0.5933340744       -7.2723954941       -6.1176008166
 H        -0.1613886488       -5.4796081365       -5.9428717225
 H        -4.9312495019       -1.8725003868       -7.5410194791
 H        -3.4707247772       -2.6568317116       -6.9877327869
 H        -4.7487130627       -3.4399850267       -8.1036863995
 H        -3.8464689790       -1.3444676208      -11.1338652793
 H        -4.8531886107       -0.6504241185      -10.0217729751
 H        -5.1612909317       -2.3628656164      -10.5083308195
 H         0.4721934077        5.5230974438       -8.1779575186
 H         0.0304724905        5.1780214852       -9.9150357377
 H         0.8006930268        3.9545953106       -8.8934794604
 H        -0.4209468497        3.2232730568       -6.6287290398
 H        -2.2159217967        3.4666733055       -6.5678696361
 H        -1.0209667375        4.8633079035       -6.1634019842
 H        -2.5507244274       11.8421630598       -5.9747414862
 H        -1.8803713118       12.8116161110       -7.2932975238
 H        -0.9843585105       11.4423737386       -6.4100356163
 H        -4.4068871588       11.9294856760       -7.4331748243
 H        -4.6253805641       10.2881763014       -7.6093324546
 H        -4.5113285168       10.9717871520       -8.9134961448
 H         2.2040371997       11.3875799657      -13.4659475994
 H         1.4870281082       10.8976404105      -14.9662163807
 H         2.2927461253        9.7196044800      -14.0616593365
 H        -1.0641747958       10.8898661647      -14.8672343097
 H        -0.3278076053       12.1910202784      -14.2557161382
 H        -1.5838605102       11.5202157682      -13.2430045908
 H        -1.8565312096        3.4198308982      -14.3715553982
 H        -0.5720881798        4.0320699298      -15.2803822322
 H        -2.1547839058        3.7995223964      -16.0695363400
 H        -1.9067948028        7.3860551287      -15.7449414056
 H        -3.0997367614        6.3508368017      -16.5404709596
 H        -1.3127857806        6.0389231463      -16.7795554097
 H        -7.7412772964        6.2657217544      -12.9819655320
 H        -8.6803064297        7.5860418478      -12.3144130610
 H        -8.7900592835        5.9610949284      -11.6256520912
 H        -6.2865604540        8.6550074020       -9.8467386660
 H        -7.9369039065        8.1979274864       -9.4474508974
 H        -7.6231432070        9.0167069833      -10.9324597623
 Na       -3.2557068831        5.1146769958      -11.4398306950
 Na       -1.3993807927       -9.6725976103       -7.8636374028
