232

 C        -7.0729526155        5.6967323098       -8.8478557669
 C        -6.3761238304        5.9160033220      -10.2105183629
 O        -5.4907863569        5.1784463350      -10.5298207954
 C        -6.7700756935        7.0293117968      -11.1449360602
 C        -5.5728952321        7.4517600282      -11.9890758753
 O        -4.6902402980        8.1225698529      -11.4627387283
 C        -5.6030070514        6.8681500499      -13.3597892571
 C        -4.2128893417        6.8935306832      -14.0791847864
 C        -3.5130957324        5.5416326481      -14.2149602558
 O        -4.1429491282        4.5282739791      -13.9426603704
 C        -2.0422782097        5.5065221293      -14.7786014309
 C        -1.0640007022        6.0451564806      -13.5796320991
 O        -1.4331381362        5.8519213305      -12.3941945568
 C         0.3751066096        6.4321539032      -13.8465221687
 C         0.7698253299        7.6899810903      -13.0989019850
 C        -0.1739443719        8.8388048658      -13.5317548692
 O        -1.2188998577        8.5732274853      -14.1154022044
 C         0.2555667975       10.2741597284      -13.2910183778
 C         0.3436894282       10.3872986988      -11.6821622179
 O         0.8072676674        9.4657874854      -11.0284819435
 C        -0.0222810446       11.6371020388      -11.0168027976
 C        -0.3900472892       11.4382766522       -9.5163150175
 C        -1.8650188903       11.1048640438       -9.4310331581
 O        -2.5040583693       10.8225756590      -10.4327079361
 C        -2.4609349040       10.8030184359       -7.9669432742
 C        -2.1565813175        9.3815267880       -7.3504913021
 O        -1.4274552376        9.1441231954       -6.4172721062
 C        -2.6473917142        8.1976629889       -8.1624773220
 C        -2.0580152671        6.8597150660       -7.6116660913
 C        -2.3308072103        5.6031032556       -8.4553945930
 O        -3.0918336082        5.6799383354       -9.3905992826
 C        -1.3967086106        4.3528025060       -8.2899825411
 C        -1.9771688874        3.0268313794       -9.1446333430
 O        -2.3668503559        3.0719232592      -10.2976277540
 C        -1.9338517561        1.6282144945       -8.3892329156
 C        -2.5012002817        0.6004216785       -9.3836746165
 C        -2.3337441929       -0.7647089959       -8.7509525312
 O        -1.4313720700       -1.1285923144       -8.0054929361
 C        -3.3306937884       -1.9398071016       -9.2600758806
 C        -2.4956786061       -3.1409685091       -9.8040102652
 O        -2.2442160579       -3.2350425211      -10.9959887313
 C        -1.9180950065       -4.1790649104       -8.7955724549
 C        -1.2646688778       -5.3405988605       -9.5372534645
 C        -0.8777609307       -6.4676844567       -8.4577787060
 O        -1.6767225097       -7.3730784981       -8.2869929537
 C         0.4164156621       -6.4343289195       -7.7061767434
 C         1.3031617513       -7.8237159198       -7.9633679481
 O         0.7867717420       -8.8983310217       -8.1710422539
 C         2.8133654520       -7.8116347733       -7.8825943161
 C         3.3767613780       -9.2744522403       -7.7654400050
 C         2.8778269887       -9.9430911140       -6.4613475036
 O         2.2096371727       -9.2458303466       -5.7516628973
 C         3.2723713451      -11.5068949817       -6.1915741008
 C         2.3815695818      -12.3799678452       -7.1229605211
 O         2.7202094965      -12.3627095526       -8.2781990715
 C         1.3599544147      -13.2155861930       -6.4740258256
 C         0.3656654609      -13.8461284037       -7.5179942123
 C        -0.4235681464      -12.7412614760       -8.2435430234
 O        -0.5578513616      -11.7212605078       -7.6310156905
 C        -0.9402502634      -12.9865983142       -9.7396830528
 C        -2.0114429298      -11.8693253999      -10.1123302501
 O        -1.6645396349      -10.7126306450      -10.1414378961
 C        -3.4340220971      -12.2473460238      -10.1224594752
 C        -4.5857531655      -11.1833778221       -9.8056229722
 C        -4.5283081141      -10.5568556186       -8.4501704311
 O        -3.4858007877      -10.1792419100       -7.9363930911
 C        -5.7911217972      -10.3659361930       -7.6244119079
 C        -6.9797060606       -9.7191473418       -8.4765778637
 O        -8.0480750238      -10.2934519696       -8.6296048877
 C        -6.6360184408       -8.3033944465       -9.0475550242
 C        -7.5228355580       -7.8849336647      -10.2600529335
 C        -6.7934631702       -8.1523734995      -11.6047784951
 O        -5.7745527779       -8.8249057048      -11.7195406543
 C        -7.5616100580       -7.4171085196      -12.8734864953
 C        -7.3845448243       -5.9002768328      -12.8550861989
 O        -6.7972273326       -5.3947525020      -11.9111146800
 C        -8.1449406975       -5.0599226799      -13.9862455903
 C        -8.7961860088       -3.8816072274      -13.2634019935
 C       -10.2517431102       -4.2723310784      -12.6525051152
 O       -10.4338145923       -5.2426911637      -11.9506206972
 C       -11.4627859951       -3.2870132072      -12.7867520583
 C       -12.5916750524       -3.8737586522      -11.9017448367
 O       -13.0311896589       -3.2323721568      -10.9617598105
 C       -13.3781499557       -5.0529002928      -12.5333265213
 C       -10.9189371333       -1.9012490162      -12.1433913612
 C       -11.8804760350       -2.9744438253      -14.1836168628
 C        -6.7216674133       -7.9451730080      -14.0922405247
 C        -9.0868503445       -7.9344571264      -12.8965429665
 C        -6.1471526008      -11.7781993764       -7.2107491590
 C        -5.5557864862       -9.4406534136       -6.3685675616
 C         0.2802770409      -12.7812409540      -10.9480546049
 C        -1.4324659355      -14.4448407792       -9.7850858438
 C         4.7331392439      -11.6537581856       -6.6502150592
 C         3.2854811334      -11.8716786584       -4.6303609592
 C         1.3010281518       -5.2870687410       -8.1191267350
 C        -0.0139447928       -6.5413076250       -6.1738204926
 C        -3.9396013462       -2.3486850571       -7.8952917289
 C        -4.2874510793       -1.7887161282      -10.4251474387
 C         0.0015106333        4.8293456257       -8.8847485461
 C        -1.2545287058        4.0230491349       -6.7398909754
 C        -1.7640794692       11.9012493734       -7.0513468192
 C        -3.9430965405       11.0055440172       -8.0879084400
 C         1.6309586139       10.4571454086      -13.8898325025
 C        -0.7057574060       11.2627641800      -14.0557898202
 C        -1.6506298688        4.0343045638      -15.1209433450
 C        -2.0135390028        6.2834972708      -16.0815463088
 C        -8.0829156389        6.6830790896      -11.8705873567
 C        -7.1530661134        8.3070956140      -10.1739922177
 H        -7.2546120925        4.6256104170       -8.7309553484
 H        -8.0373072326        6.2211256805       -8.7379214495
 H        -6.4389732586        6.1255194611       -8.0800534314
 H        -6.4287594246        7.4163477692      -13.8297402908
 H        -5.8470056345        5.7609764000      -13.3710682737
 H        -3.4628190065        7.6174482008      -13.7357781683
 H        -4.4509531872        7.1221954413      -15.1136669166
 H         0.6019713958        6.3973122502      -14.9369264309
 H         0.8739013683        5.5860560793      -13.3774291992
 H         1.8616303279        7.9202839342      -13.2465515075
 H         0.3847293352        7.5406691870      -12.0251402405
 H        -0.9352154503       12.1428687680      -11.4808085266
 H         0.8978854378       12.2173184523      -11.1053931489
 H        -0.2707489946       12.3963833561       -9.1102865983
 H         0.1479128379       10.6050770036       -8.9498665311
 H        -2.3807467500        8.3371839091       -9.2344801771
 H        -3.7934054013        8.2614416706       -8.0412255701
 H        -2.5367275640        6.7812718287       -6.6225355256
 H        -0.9961452612        6.9682908933       -7.4045488095
 H        -2.5480501572        1.8491302693       -7.4934992525
 H        -0.8625553864        1.4434208046       -8.0879037118
 H        -1.8347348456        0.5452206326      -10.2931416418
 H        -3.4618074667        0.8863127565       -9.6224450352
 H        -2.7626484458       -4.6114692724       -8.1551448384
 H        -1.2834124770       -3.8008705087       -8.0411316581
 H        -0.4632407584       -5.0734139339      -10.2498680763
 H        -2.0419542856       -5.8093302130      -10.1408961982
 H         3.1480957626       -7.1304673018       -7.1041585825
 H         3.0839026149       -7.4377108802       -8.8644843316
 H         4.4204789120       -9.3579268871       -7.6949288493
 H         2.9730793795       -9.8121387700       -8.6110791289
 H         0.7588430904      -12.7133676325       -5.7406949201
 H         1.9327632825      -13.9298684435       -5.9871333910
 H        -0.3330707813      -14.5822969289       -6.9920678254
 H         0.9418567755      -14.5120691287       -8.1641245012
 H        -3.7516589471      -13.2300741647       -9.5953541738
 H        -3.6658571979      -12.5341030151      -11.1653883764
 H        -5.5537540287      -11.7343341420       -9.9444377764
 H        -4.6263817803      -10.3893528713      -10.5960287070
 H        -5.5884336474       -8.1374213789       -9.3467133198
 H        -6.8229235601       -7.5686478183       -8.2415235151
 H        -7.7839589597       -6.8570155003      -10.2951220335
 H        -8.3828046792       -8.5404956905      -10.2154185722
 H        -8.7429240675       -5.8023105837      -14.5201984229
 H        -7.4920003249       -4.7997863291      -14.7814260265
 H        -8.8906221511       -2.9843264693      -13.8793612455
 H        -8.1415133925       -3.6195990570      -12.4210692688
 H       -14.2567788226       -4.6806789103      -13.0634783549
 H       -13.6147764045       -5.8842900059      -11.9060924047
 H       -12.8292831737       -5.5744098031      -13.2771536627
 H       -11.7739201420       -1.4962284992      -11.5524537020
 H       -10.5966760092       -1.1657936607      -12.8598799477
 H       -10.2508627471       -2.0904763410      -11.3571783102
 H       -11.0325485782       -2.4714003280      -14.6619998857
 H       -12.7012167870       -2.3537582916      -14.1391650834
 H       -12.2565855222       -3.7795738532      -14.8087839113
 H        -6.8656919145       -7.2951303526      -14.9733923603
 H        -6.9522042906       -9.0153160393      -14.3220019901
 H        -5.6811543437       -7.8927285491      -13.9018007174
 H        -9.7291228239       -7.2924792440      -12.3633956202
 H        -9.1797309169       -8.9257149937      -12.4389153410
 H        -9.4620312099       -7.9920221099      -13.9673007151
 H        -6.8963298091      -11.9226736348       -6.4381418782
 H        -5.2963796533      -12.2484083941       -6.7956816943
 H        -6.4659024347      -12.3333656542       -8.0944343956
 H        -6.5603814405       -9.0505145332       -6.0467778002
 H        -5.0769186032       -8.5450461351       -6.7628742948
 H        -5.0149624177       -9.8441378085       -5.5386815869
 H         1.0543089441      -13.4689714940      -10.5870306409
 H         0.6034064323      -11.7964141204      -10.9511108631
 H        -0.2382266122      -13.0183055059      -11.8807270365
 H        -0.6487058499      -15.1617562875       -9.6739854134
 H        -1.9418875714      -14.5937610003      -10.7110193937
 H        -2.1712500069      -14.5961797421       -9.0105413730
 H         4.7585759363      -11.4965509753       -7.7510137048
 H         5.1010627669      -12.7072996799       -6.5305817250
 H         5.2771478122      -10.8587708520       -6.1749073110
 H         2.3211743544      -11.7544093180       -4.2462131591
 H         4.0185674134      -11.1433262320       -4.2495634072
 H         3.6360741728      -12.8973200617       -4.5584412608
 H         2.3380654859       -5.3036684036       -7.8348675375
 H         0.7958999178       -4.3389992942       -7.8355529466
 H         1.3257534605       -5.4085686565       -9.1952635633
 H         0.8409346727       -7.0002698501       -5.5619142774
 H        -0.8496984980       -7.1504973916       -6.1007503537
 H        -0.2058382313       -5.5040251552       -5.7155951546
 H        -4.6947293469       -1.6659469255       -7.5182465885
 H        -3.1305162954       -2.3561926532       -7.1893587121
 H        -4.5070602864       -3.2327383170       -7.8805049413
 H        -3.7960268589       -1.3535372571      -11.3325614179
 H        -5.1199910437       -1.0676791007      -10.2852968403
 H        -4.5503962847       -2.7864758789      -10.6023744111
 H         0.2989922346        5.7515560029       -8.3849216541
 H         0.0431223227        4.8649055694       -9.9793422838
 H         0.7695477116        4.0745392115       -8.6052071850
 H        -0.6440932800        3.1011825656       -6.6202915010
 H        -2.2234598306        3.9024156411       -6.2813790643
 H        -0.7156148858        4.9395629829       -6.3921766723
 H        -2.1857598241       11.9332850740       -6.0803178127
 H        -1.7273820766       12.8684512850       -7.5920527271
 H        -0.7888445296       11.4185601728       -6.8046054146
 H        -4.3014283416       11.6235574416       -7.3020468718
 H        -4.5003086090       10.1124087326       -7.9851119131
 H        -4.3560058127       11.1417769865       -9.0601590003
 H         2.0627473603       11.4700171000      -13.7193997026
 H         1.5549085349       10.3229265152      -14.9390154257
 H         2.3213053896        9.6703748389      -13.5930503453
 H        -0.5072602376       11.1784537263      -15.1440223145
 H        -0.4691177788       12.3419530308      -13.9975850598
 H        -1.7712489529       11.1910791904      -13.7671329571
 H        -1.5639244006        3.4272287855      -14.2444419894
 H        -0.6788857864        4.0103831616      -15.4948033800
 H        -2.3146232984        3.6300333689      -15.7843327628
 H        -1.6276256041        7.3040790512      -15.7497972961
 H        -2.9946315892        6.3311139161      -16.4985440785
 H        -1.3444573379        5.8844518172      -16.8019333182
 H        -7.9720653012        6.0047658216      -12.7512072214
 H        -8.3858090196        7.6566545226      -12.2874708876
 H        -8.9275187180        6.3019424791      -11.2657441684
 H        -6.1554487951        8.7338607421       -9.8690411650
 H        -7.7778086013        8.1730963533       -9.2979903484
 H        -7.5874973673        8.9322346318      -10.8862267431
 Na       -3.3129065437        4.9229549595      -11.5767714167
 Na       -1.2438281244       -9.6486251965       -7.8478395050
