232

 C        -6.9037757300        5.8737775716       -8.4829888098
 C        -6.3174337185        5.9684336445      -10.0080315177
 O        -5.8748774189        4.9348082025      -10.5556625460
 C        -6.6328153361        7.1759033834      -10.8837534577
 C        -5.3970288054        7.4627163335      -11.9152143089
 O        -4.5274714658        8.2226081935      -11.5779129321
 C        -5.4355186341        7.0176710321      -13.3924101329
 C        -4.0514163612        7.1080358197      -13.9596347630
 C        -3.4377510444        5.7264176536      -14.1736696574
 O        -4.0666185502        4.7028029028      -13.8399675714
 C        -1.9476481061        5.4613386325      -14.8059763638
 C        -1.0505627442        5.9633893306      -13.5804786161
 O        -1.4891752007        5.8980689518      -12.4496664044
 C         0.4435767065        6.1940020065      -13.7384501975
 C         1.0634583402        7.6009672428      -13.4945823756
 C         0.0762349635        8.7257580468      -13.7379418987
 O        -1.0762280603        8.4198621907      -14.0872975931
 C         0.4270754598       10.2296638288      -13.5171850755
 C         0.4215022645       10.2341657561      -11.8078596059
 O         0.9406132767        9.3692963724      -11.1170835590
 C        -0.0353095000       11.6058993766      -11.2220445193
 C        -0.3758232892       11.4224103202       -9.7232561671
 C        -1.8340467547       11.0055593142       -9.5249862250
 O        -2.4300578403       10.5332789924      -10.4685700537
 C        -2.3907568381       10.8863641905       -7.9945332452
 C        -1.9017684089        9.4040230796       -7.4908781950
 O        -1.1070298882        9.2091715758       -6.5905215200
 C        -2.5532132500        8.2584637169       -8.2921465039
 C        -2.2455442636        6.8730061597       -7.5768317726
 C        -2.5148222472        5.6410353442       -8.4645986147
 O        -3.3292500166        5.6638893691       -9.3508221112
 C        -1.6275788918        4.3617922801       -8.4229708975
 C        -2.1523978263        3.1380060344       -9.1988231664
 O        -2.5328815004        3.1214756950      -10.3526205233
 C        -2.0972315689        1.7328978347       -8.4640324227
 C        -2.5635485028        0.6886610148       -9.3848383307
 C        -2.3066929483       -0.8111753545       -8.9165856833
 O        -1.2987478565       -1.0388403610       -8.2898020229
 C        -3.3719351802       -1.9349792987       -9.3300941921
 C        -2.5167483557       -3.2005715286       -9.7586979527
 O        -2.2438494703       -3.4893154152      -10.9314570244
 C        -1.9460632782       -4.2684043181       -8.6527092091
 C        -1.0678663127       -5.3027159200       -9.3715144845
 C        -0.7373022863       -6.3764170087       -8.2421920863
 O        -1.6055200836       -7.2146416336       -8.0215012461
 C         0.5509909733       -6.3698717490       -7.2924497775
 C         1.3478436844       -7.7002256020       -7.8778725510
 O         0.8084356694       -8.7331684484       -8.1999555201
 C         2.8987455083       -7.6026370863       -7.7867430225
 C         3.6051210436       -8.9643434106       -7.8240722552
 C         2.8944193072       -9.8290746651       -6.6085450215
 O         2.1827867088       -9.3168974899       -5.8013734365
 C         3.2754156494      -11.2603817335       -6.2826628669
 C         2.4684465191      -12.2076286101       -7.3918046591
 O         2.7805336555      -12.2303549354       -8.5865606893
 C         1.4677854605      -13.2383600652       -6.7708685363
 C         0.4599487853      -13.7529980240       -7.8453877535
 C        -0.4357131265      -12.6062567783       -8.3787688186
 O        -0.4782907345      -11.6103878753       -7.6997762735
 C        -1.0459854415      -12.8000134146       -9.7777441895
 C        -2.1167542268      -11.6510833709      -10.1106257139
 O        -1.6875021852      -10.4965076915      -10.1812628793
 C        -3.6172947676      -12.0543410884      -10.3186405521
 C        -4.5938390225      -10.9531319253       -9.8520859641
 C        -4.6776663510      -10.7779795830       -8.3470766375
 O        -3.6297037276      -10.7069231712       -7.6810092128
 C        -6.0443855890      -10.5991890341       -7.5121245882
 C        -7.0217691802       -9.7836534131       -8.5010342830
 O        -8.0503258357      -10.2957487448       -8.8683044008
 C        -6.6523721289       -8.3491829100       -8.8077363112
 C        -7.4184075785       -7.7883807450       -9.9937831521
 C        -6.7049065060       -8.2133086292      -11.3396750255
 O        -5.6561983369       -8.8088494146      -11.3554093822
 C        -7.4716559151       -7.6215811227      -12.6650885628
 C        -7.3051010124       -6.0701023006      -12.6602830331
 O        -6.4661845146       -5.5241723677      -11.9693819165
 C        -8.1823553976       -5.2817510167      -13.6789016347
 C        -8.9237863569       -4.0735296581      -13.0787691961
 C       -10.3863476612       -4.4015260205      -12.5132957219
 O       -10.5770360499       -5.3847379317      -11.8222702485
 C       -11.5114611056       -3.3404599737      -12.7011567147
 C       -12.9388344093       -3.8707636043      -11.9889950285
 O       -13.6079119472       -3.1973761796      -11.2306124535
 C       -13.5492167927       -4.9985239599      -12.6746856590
 C       -11.0513332782       -2.0387007596      -11.9988118440
 C       -11.6210204230       -3.0471149419      -14.2043977233
 C        -6.8140939019       -8.1552865565      -13.9669795884
 C        -8.9995519063       -8.0402909753      -12.5270525526
 C        -6.7182002858      -11.9417217889       -7.3467342485
 C        -5.7038733226       -9.9373636842       -6.1695107564
 C         0.1747884479      -12.6950558852      -10.8484616140
 C        -1.6191726232      -14.2837140809       -9.9478654085
 C         4.7642620663      -11.5957337931       -6.6233984465
 C         3.0450881579      -11.5547640083       -4.7660567263
 C         1.3692659694       -5.0843307468       -7.6194873586
 C         0.2652655705       -6.6024264200       -5.7828065199
 C        -4.1620733491       -2.2653302294       -8.0629188751
 C        -4.1948154173       -1.3993819212      -10.5189201805
 C        -0.2851175041        4.5499998908       -9.1948922461
 C        -1.4618051153        4.0568986765       -6.8549864248
 C        -1.8357894772       11.9284849882       -6.9881994551
 C        -3.9149626266       10.9450435464       -8.0573412734
 C         1.8675951702       10.5262661546      -13.9366416078
 C        -0.5657661941       11.0903165629      -14.3089661883
 C        -1.6688261712        3.9846668873      -14.8445140412
 C        -1.5997324244        6.1297183388      -16.1784251730
 C        -7.9728787850        6.8120106002      -11.6560049414
 C        -6.8053122546        8.5980268351      -10.0804016594
 H        -6.1989383888        5.2446765099       -7.9375669759
 H        -7.8660077382        5.3043739887       -8.5025360155
 H        -7.0210391083        6.7873779143       -7.8992634377
 H        -6.1458388629        7.7034073092      -13.8308907808
 H        -5.9058554458        6.0596490644      -13.3538422181
 H        -3.4807635864        7.6817949583      -13.1853151571
 H        -4.0840321435        7.6523406341      -14.9056896976
 H         0.6485024421        5.8592741994      -14.7614630112
 H         1.0646699732        5.5438368708      -13.1038854518
 H         2.0317429437        7.6799201118      -14.0879899172
 H         1.2816209880        7.7978960553      -12.4558467885
 H        -0.9313700450       11.8735669537      -11.7835315152
 H         0.7837013738       12.2699796083      -11.3254539211
 H        -0.2067038186       12.3326498861       -9.1724211828
 H         0.2482535073       10.6139630858       -9.3646764356
 H        -2.0637316066        8.2634661960       -9.2649357038
 H        -3.6056644042        8.5213123167       -8.4322049489
 H        -2.6262425472        6.9374335679       -6.5265470435
 H        -1.1824426512        6.8401459942       -7.3978318296
 H        -2.7382684493        1.9105169909       -7.6687008161
 H        -1.1411590494        1.4178802490       -8.0228261922
 H        -1.9210077661        0.7374052368      -10.3005515663
 H        -3.6234414349        0.9398099823       -9.5265825181
 H        -2.6983126185       -4.7977164984       -8.1321973680
 H        -1.3112940658       -3.6720167476       -7.8908220092
 H        -0.2483256750       -4.8400732462       -9.9350235315
 H        -1.8373633111       -5.7668685374      -10.0630589146
 H         3.0891727285       -7.1736995253       -6.7666280988
 H         3.4182337390       -6.9738116239       -8.5656606796
 H         4.6646143095       -8.7977860618       -7.5682255206
 H         3.4523140505       -9.5855697296       -8.7482175402
 H         0.8189281157      -12.7257542264       -6.0215711422
 H         1.9132482628      -14.2184558813       -6.3494654150
 H        -0.1034992389      -14.5500672082       -7.3060795094
 H         1.0055562129      -14.2103923899       -8.5906735376
 H        -3.9342896354      -12.9992729979       -9.9338142878
 H        -3.7031805233      -12.1466269410      -11.3811997620
 H        -5.5629780072      -11.0401733617      -10.3078691298
 H        -4.2397712038      -10.0099833294      -10.2980310843
 H        -5.5763396188       -8.1488901375       -8.8987047311
 H        -6.8858366086       -7.7000164335       -7.9236415961
 H        -7.4366325862       -6.6754784582      -10.0474894172
 H        -8.4045486079       -8.1716672946       -9.9151025608
 H        -8.6810598802       -5.9928524660      -14.2453791854
 H        -7.4502754655       -4.8851062570      -14.4062881300
 H        -8.9270606360       -3.2199215216      -13.8503111074
 H        -8.4675352258       -3.6889776054      -12.2001572612
 H       -13.4063175502       -5.0643127748      -13.7787802836
 H       -14.6087632462       -5.0922463597      -12.2844743441
 H       -13.1441466738       -5.9331813773      -12.3549725481
 H       -11.4917889291       -2.0996072873      -10.9258312353
 H       -11.4375830681       -1.1353211635      -12.4818715456
 H       -10.0239305236       -2.0054419091      -11.8387777705
 H       -10.6847276852       -2.5392234504      -14.5183771048
 H       -12.3739058551       -2.2479694546      -14.3928548627
 H       -11.8618838922       -3.9485797017      -14.9051552191
 H        -7.5545898121       -8.0839723333      -14.8234113286
 H        -6.7292702219       -9.2483780250      -13.8761362153
 H        -5.7863860926       -7.8661499614      -14.1753678099
 H        -9.5154772726       -7.7581111152      -11.6675857696
 H        -9.1090669244       -9.1140019762      -12.6405378670
 H        -9.5158509271       -7.6570323383      -13.4879447020
 H        -7.6653873290      -11.9228555620       -6.7988103480
 H        -6.0413385621      -12.5709271595       -6.7339932033
 H        -6.9918343435      -12.4061050433       -8.3058844155
 H        -6.5562317160       -9.9741718166       -5.4915716916
 H        -5.2832156832       -8.9510298827       -6.2153263704
 H        -4.9628350171      -10.6459180864       -5.7634676498
 H         0.5670576687      -13.7170535327      -10.9792658609
 H         0.9248392864      -12.0427902130      -10.4231148761
 H        -0.3115776317      -12.2275154113      -11.6807704046
 H        -0.6726952239      -14.9067340089      -10.0018984684
 H        -1.9122909718      -14.3883464870      -10.9958092675
 H        -2.4480025202      -14.6521224894       -9.3483693190
 H         5.0315429925      -11.5892074640       -7.6657908693
 H         5.0348817882      -12.5515412934       -6.2154432392
 H         5.2684470586      -10.8004211231       -6.1298789100
 H         2.0002313114      -11.2629237215       -4.6595714874
 H         3.7052302848      -10.9817054415       -4.0917232851
 H         3.0946044289      -12.6519953909       -4.7868676417
 H         2.1587347079       -5.0553151574       -6.8665921542
 H         0.7596100954       -4.1968376524       -7.5084542115
 H         1.9715318238       -5.1539273516       -8.5042776154
 H         1.2462155099       -6.4780468745       -5.2600219245
 H        -0.0470108927       -7.5616705312       -5.5766575263
 H        -0.5761327699       -5.9078134116       -5.4639975728
 H        -4.6956259406       -1.3623872471       -7.5643992460
 H        -3.6674669800       -2.9150194211       -7.3367068233
 H        -5.0582290684       -2.9174158508       -8.3303986264
 H        -3.4992591038       -0.9606414164      -11.2561367258
 H        -4.6883584700       -0.5021149243      -10.2195026162
 H        -4.7941534923       -2.1047142437      -10.9569427370
 H         0.3622389724        5.2733366177       -8.7769485577
 H        -0.4714588890        4.7203724193      -10.2679282773
 H         0.2625651786        3.6047228827       -9.1670077153
 H        -0.8885558868        3.1618418164       -6.6873162282
 H        -2.4819453653        3.8672362092       -6.4886094219
 H        -1.0659067411        4.9475842307       -6.2949116475
 H        -2.1563888403       11.7288344255       -6.0143890832
 H        -2.1987858364       12.8174561888       -7.4897479502
 H        -0.7500250967       11.9467109408       -6.9688825472
 H        -4.4422724530       10.3473260079       -7.2589192751
 H        -4.3380684238       10.6703751093       -9.0670318981
 H        -4.2793510313       11.9738297955       -8.0392112314
 H         1.9268328683       11.2353599151      -14.7444712886
 H         2.4625711156        9.6312837040      -14.1810013840
 H         2.4125982944       11.0162093245      -13.1126565729
 H        -0.3185254375       11.0857370393      -15.3794488591
 H        -0.5935879593       12.1192450374      -13.9877897579
 H        -1.5556182124       10.7432887446      -14.1691408352
 H        -1.8163104885        3.4642452817      -13.8219222863
 H        -0.5640224348        3.7931069210      -15.0852137475
 H        -2.3356016708        3.4612119073      -15.5465747350
 H        -1.9158028893        7.2173246651      -16.1922911668
 H        -1.9299353731        5.5061740984      -16.9318699927
 H        -0.5062246066        6.1264669348      -16.3666831073
 H        -8.2362649628        5.7587421144      -11.6161520094
 H        -8.0771601044        7.0370611780      -12.6889772070
 H        -8.7284745666        7.3192059707      -11.0778071433
 H        -5.9428484743        8.6975862358       -9.3701400022
 H        -7.6229425378        8.4271655706       -9.4131428305
 H        -6.9035055651        9.4107510485      -10.7313477884
 Na       -3.6166634605        4.4588508113      -11.6303850833
 Na       -1.4911836003       -9.5253796071       -8.2289399925
