232

 C        -6.6795073147        5.9111311297       -8.6033332284
 C        -6.3680310892        5.8732374551      -10.0628705562
 O        -5.9197516314        4.8366235143      -10.4488402659
 C        -6.6555623539        7.2560541665      -10.8736978883
 C        -5.3908032399        7.5943305632      -11.8803862479
 O        -4.4580861093        8.1992337571      -11.4216338511
 C        -5.4067303238        7.0827280691      -13.3513694722
 C        -3.9812303319        7.0683758952      -14.0765068569
 C        -3.4476375204        5.6950123084      -14.2140494894
 O        -4.0182312606        4.6948011294      -13.8115119260
 C        -1.9646131242        5.4834255554      -14.6908348651
 C        -1.0254092094        5.9929884745      -13.5050128871
 O        -1.5759224984        5.8022206294      -12.4076750790
 C         0.5743791436        6.1410492299      -13.6500073319
 C         1.2412543331        7.5438255182      -13.5433190645
 C         0.1381453928        8.6314601503      -13.7748328472
 O        -1.0288780481        8.3179068510      -14.0575457235
 C         0.5324511904       10.1714430444      -13.5255906187
 C         0.4871570206       10.2904125129      -11.9188851224
 O         0.8864747423        9.3283428090      -11.2857893923
 C        -0.0851238254       11.5895883891      -11.2389331270
 C        -0.3475473043       11.5205112087       -9.6774448050
 C        -1.7142839637       10.8874356042       -9.4163925203
 O        -2.4671120288       10.4940910720      -10.3177111800
 C        -2.3681616784       10.8542410920       -8.0240924127
 C        -1.9562950326        9.3968374432       -7.6554695466
 O        -1.1057864458        9.2264693016       -6.8036437445
 C        -2.5519829563        8.1963329448       -8.3991301704
 C        -2.1670435112        6.8766153474       -7.6679397844
 C        -2.4446437184        5.7581987841       -8.6220289204
 O        -3.3715117831        5.8543361502       -9.4178143598
 C        -1.6331433097        4.3302265329       -8.4402776923
 C        -2.2386963418        3.1208588465       -9.1276561769
 O        -2.6439910248        3.0797797864      -10.2863741136
 C        -2.1501002453        1.7712993018       -8.4667914187
 C        -2.5811772936        0.6249238799       -9.4018138702
 C        -2.2933412370       -0.8455475765       -8.9759990253
 O        -1.2581177650       -1.1373048169       -8.3967379019
 C        -3.3479303117       -1.9468799353       -9.3372961946
 C        -2.4749408651       -3.1805094557       -9.7752958691
 O        -2.3628949912       -3.3249671124      -10.9316003922
 C        -1.9734028215       -4.0959308312       -8.6902205338
 C        -1.0187834691       -5.2182468822       -9.0303084318
 C        -0.7823710759       -6.3050162522       -8.0445537422
 O        -1.5545016712       -7.2239230227       -7.9258423691
 C         0.6338205715       -6.3815199664       -7.3335780457
 C         1.4068510668       -7.6014991069       -7.8256112745
 O         0.6802525446       -8.4991627509       -8.2478852304
 C         2.9182755294       -7.6114070955       -7.7234047699
 C         3.6070703855       -9.0038697252       -7.7051840158
 C         2.9789255218       -9.7280690344       -6.5757654490
 O         2.1115337183       -9.1204750968       -5.9485532761
 C         3.2908821928      -11.3345978225       -6.3200569755
 C         2.5731425049      -12.1516154889       -7.4034638512
 O         2.8541645262      -11.9790180554       -8.5381333091
 C         1.6795912375      -13.2692561748       -6.9278425744
 C         0.4656758702      -13.7166290314       -7.8557474931
 C        -0.3460210439      -12.5669216620       -8.4070500346
 O        -0.5827084205      -11.5412627451       -7.7924825304
 C        -1.0029324082      -12.7963176352       -9.8569777416
 C        -2.2121843036      -11.7277044748      -10.0753551772
 O        -1.7967233077      -10.6256804933      -10.2811972528
 C        -3.6728889598      -11.9812386276      -10.2898785948
 C        -4.6309473865      -10.7968634889       -9.8068633268
 C        -4.6834012012      -10.7968725099       -8.2821773576
 O        -3.6901282992      -10.8481522647       -7.5893587359
 C        -6.1018842707      -10.7327840893       -7.5068669175
 C        -7.0877512850       -9.7719249148       -8.3723729366
 O        -8.0092037469      -10.2917365688       -9.0262764710
 C        -6.5795863726       -8.3602829398       -8.6501528472
 C        -7.2903647584       -7.6300359497       -9.8052682135
 C        -6.7719333923       -8.0321973769      -11.2437168011
 O        -5.7392294951       -8.7036743376      -11.3897882211
 C        -7.5071286904       -7.7618486290      -12.5636320021
 C        -7.4076556099       -6.1806518400      -12.7020740304
 O        -6.5254271815       -5.6421893348      -12.0133720034
 C        -8.2310153455       -5.2806450193      -13.6340051338
 C        -8.8903740035       -4.1363231514      -12.8343077249
 C       -10.3582886223       -4.4353874865      -12.3812408883
 O       -10.5743649323       -5.4991065677      -11.8483640158
 C       -11.5096078378       -3.3253548546      -12.6653119260
 C       -13.0025972059       -3.8042176651      -12.2297095242
 O       -13.4948833896       -3.1152986952      -11.3463999707
 C       -13.6064663217       -5.1195359709      -12.7951944363
 C       -11.2167794469       -1.9603743691      -11.8870773991
 C       -11.7616470470       -3.0531828589      -14.1828585367
 C        -6.7601365740       -8.2577057945      -13.8206859079
 C        -8.9349664041       -8.1981644047      -12.5072967305
 C        -6.6752269436      -12.1334139670       -7.4092122338
 C        -5.7988720295      -10.1027322138       -6.1182236855
 C         0.1003616751      -12.5001134216      -10.7781765035
 C        -1.6369537948      -14.2175087593      -10.0083411548
 C         4.8123375950      -11.7245087995       -6.6077293698
 C         3.0368246053      -11.6707122286       -4.8613432490
 C         1.3854164147       -5.0148256213       -7.5100165318
 C         0.2597845475       -6.7186223772       -5.8534040166
 C        -4.3293065900       -2.3183314762       -8.1571575134
 C        -4.1524486958       -1.6934996546      -10.5997278292
 C        -0.2656235807        4.7320367067       -9.0366597036
 C        -1.3682030647        3.9970114783       -6.9348026162
 C        -1.7862355498       11.8676354012       -7.0020982372
 C        -3.9261709539       10.8816460992       -8.1268255278
 C         1.9360509088       10.5749021170      -14.0051003875
 C        -0.4399278190       10.9840212143      -14.3106778653
 C        -1.6942895734        3.9404658149      -14.8669817687
 C        -1.7767932768        6.0622960342      -16.1260366376
 C        -7.8721711315        7.0085215381      -11.7413545803
 C        -6.6456123171        8.5336610632      -10.0852512712
 H        -5.8079060460        5.6898595638       -7.9357675454
 H        -7.5181660964        5.2315602385       -8.3905538579
 H        -7.0024534970        6.9277993007       -8.3161285403
 H        -6.0510897723        7.7297432650      -13.8730263382
 H        -5.9958407531        6.1788280691      -13.1830481306
 H        -3.2730151268        7.6492783018      -13.4559791423
 H        -4.1338025997        7.5418448819      -15.0383234984
 H         0.7304869978        5.6165623277      -14.6221467128
 H         1.1172442028        5.5623335773      -12.9096623322
 H         2.0668275941        7.6970858087      -14.2785569507
 H         1.6810369505        7.7570090686      -12.4701856699
 H        -1.0704356145       11.7772467936      -11.7531176650
 H         0.6482649366       12.3383757641      -11.4155531266
 H        -0.5151160103       12.4951986908       -9.3700825381
 H         0.5016156634       11.0541394125       -9.1226288342
 H        -2.0775915141        8.1968838106       -9.4202264981
 H        -3.7069067752        8.2745381602       -8.5507805218
 H        -2.7919916633        6.7767967266       -6.7627204774
 H        -1.1719715372        6.8569489955       -7.2225023095
 H        -2.6615319095        1.7556345662       -7.4794900329
 H        -1.1000234948        1.6920216162       -8.2042941231
 H        -1.9886963109        0.5927815048      -10.3610923772
 H        -3.6004521589        0.7841721809       -9.4943299565
 H        -2.9378518049       -4.5543567478       -8.1590135011
 H        -1.5141073482       -3.4773682571       -8.0178891067
 H        -0.0612450484       -4.6763864576       -9.1728196065
 H        -1.3972427782       -5.6575953496       -9.9596947384
 H         3.2936548458       -6.9652763199       -6.8831840134
 H         3.2767177182       -7.2328195168       -8.7030329334
 H         4.6524859244       -8.8507393797       -7.4972912720
 H         3.4210969957       -9.7046745187       -8.5398050507
 H         1.2823983347      -13.0373267345       -5.9263538691
 H         2.2587289837      -14.0956110805       -6.9080597892
 H        -0.1756628859      -14.3938357994       -7.2532945920
 H         0.9457032730      -14.2381838612       -8.6834464950
 H        -4.1220589303      -13.0318532944       -9.9920277097
 H        -3.6334918840      -12.0052336769      -11.3524800916
 H        -5.6596643111      -10.7866730254      -10.2681035027
 H        -4.2087943950       -9.8642194371      -10.2257292619
 H        -5.4858478936       -8.3302235253       -8.7743284785
 H        -6.6772451773       -7.6839568800       -7.7682507838
 H        -7.2242426009       -6.6083506463       -9.7182448077
 H        -8.3124602940       -7.8681681746       -9.7493709517
 H        -8.7916242523       -5.9239209279      -14.3260888164
 H        -7.4980906131       -4.8219462926      -14.1857178828
 H        -8.9384165851       -3.3078910170      -13.5360639341
 H        -8.3671651582       -3.7709102539      -11.9294913498
 H       -13.2079860839       -5.5797117533      -13.7143575391
 H       -14.6631203154       -5.1414013759      -12.7365367893
 H       -13.3445602435       -5.9029345727      -12.0307158708
 H       -11.2235109215       -2.1506430374      -10.8183088883
 H       -11.9482105213       -1.1845282536      -12.1061664076
 H       -10.2070214166       -1.6326060198      -12.1245832786
 H       -11.0287983947       -2.1539216835      -14.4153358294
 H       -12.7243099902       -2.5671000128      -14.3613631934
 H       -11.5951170821       -3.8717849519      -14.8798751019
 H        -7.3638364698       -8.0461793143      -14.7229024268
 H        -6.5637721822       -9.4217830597      -13.9259740659
 H        -5.7458782332       -7.8763439097      -13.8002011077
 H        -9.4638502504       -7.9409379022      -11.5712503776
 H        -9.0943310397       -9.2951831575      -12.6602135571
 H        -9.4340580017       -7.7432637663      -13.3582932877
 H        -7.7433098897      -12.1431553917       -7.1264852143
 H        -6.1432161161      -12.5083845790       -6.5786292404
 H        -6.6540251159      -12.8099046981       -8.2606456735
 H        -6.8107479707      -10.0845817748       -5.6046734910
 H        -5.4014802498       -9.0651409519       -6.1971930926
 H        -5.1467157954      -10.7065001865       -5.5386093934
 H         0.7113562071      -13.4027620383      -10.7320943929
 H         0.6065033809      -11.7141895348      -10.3343891423
 H        -0.3156160480      -12.2206780884      -11.7561645754
 H        -0.9698835096      -14.9740943249       -9.9715884665
 H        -1.9793820425      -14.2581675045      -11.0388184849
 H        -2.5513798706      -14.2993822223       -9.4088308545
 H         5.1555618053      -11.4242093965       -7.5680286942
 H         5.0328113850      -12.7900118449       -6.4580154306
 H         5.3425527965      -11.1849386950       -5.8877323475
 H         2.0725842710      -11.3756424521       -4.5846848645
 H         3.8063691576      -11.1060454919       -4.2637840770
 H         3.1822745720      -12.7517621717       -4.8384098214
 H         2.2824300175       -5.1278935943       -6.9596469264
 H         0.8171978691       -4.2303565196       -6.9814891415
 H         1.7412504143       -4.7251935690       -8.4807820982
 H         1.2498667691       -6.5999608627       -5.3160472017
 H         0.0114110707       -7.7834921881       -5.6993719755
 H        -0.6355084147       -6.1570514518       -5.4963861290
 H        -4.9492148174       -1.4849071494       -7.7709393901
 H        -3.7367274424       -2.8135624795       -7.2986826823
 H        -5.0281308013       -3.1527585494       -8.3557568320
 H        -3.5696733201       -1.2898186296      -11.3901275009
 H        -4.8860070598       -0.9206893530      -10.4081114759
 H        -4.6031254921       -2.6216184186      -10.8862922878
 H         0.4387098516        5.2903681320       -8.4089624200
 H        -0.4888632434        5.2684281785       -9.9424128562
 H         0.2820717488        3.8540315171       -9.4073191195
 H        -0.5067692478        3.2471607913       -6.8566366590
 H        -2.2314230408        3.6044839750       -6.4272897857
 H        -1.0829372814        4.9566189056       -6.4186017319
 H        -2.1571551970       11.7446310745       -6.0064288659
 H        -1.9680787874       12.7609387249       -7.5183540772
 H        -0.6978623248       11.7209431071       -7.0442264247
 H        -4.3541294028       10.0318247359       -7.6503498712
 H        -4.4723117761       11.0395611610       -9.0464373452
 H        -4.2529310746       11.7695337880       -7.5097158334
 H         1.9619063507       10.9824879247      -15.0458138273
 H         2.6333902515        9.8132439438      -13.9412454277
 H         2.2944667142       11.4130965035      -13.3945945988
 H        -0.6244629649       10.5475448660      -15.3153688508
 H        -0.1146428371       12.0388093243      -14.3997024810
 H        -1.4396763123       11.0470530788      -13.8218662417
 H        -2.0868475536        3.2570618154      -14.0682871493
 H        -0.6574555253        3.7455018715      -14.9564742834
 H        -2.1981451452        3.5998903025      -15.7825284741
 H        -2.1551843661        7.0964869311      -16.2823471117
 H        -2.2388948095        5.2841241825      -16.7469713177
 H        -0.7802352908        6.0321407777      -16.4732281703
 H        -7.9970392458        5.9522968290      -11.9733354720
 H        -7.9223338495        7.4448156186      -12.7315451157
 H        -8.7332965298        7.3052467319      -11.1585362101
 H        -5.7217797500        8.5602962649       -9.5370000590
 H        -7.3773596825        8.4773496006       -9.3319390949
 H        -6.7362305868        9.3977962776      -10.6913779626
 Na       -3.7471644817        4.6618501210      -11.5476501126
 Na       -1.6441685389       -9.5049140213       -8.3245195829
