232

 C        -7.0041300444        6.0130736685       -8.9553651326
 C        -6.3983162818        6.1325240068      -10.4301414972
 O        -5.8771759928        5.1924379684      -10.9457381853
 C        -6.2630012123        7.5703366847      -11.0223789724
 C        -5.1257097251        7.4568730492      -12.1161258311
 O        -3.9809105477        7.4980652144      -11.8026991761
 C        -5.3932262827        7.4518877176      -13.7967827032
 C        -4.0856414886        7.1424440090      -14.4494366460
 C        -3.5526706531        5.7126091011      -14.2321615021
 O        -4.2206391251        4.9480685265      -13.5380087106
 C        -2.1112145593        5.2768524914      -14.6670490087
 C        -0.9730850009        5.5571373525      -13.4618211186
 O        -1.1936462210        5.3359304033      -12.2970880133
 C         0.4364027042        5.9031383521      -13.8426691215
 C         0.9382113078        7.0804292484      -13.0118674492
 C         0.2262259874        8.2775101390      -13.4789610835
 O        -0.9259164635        8.0942321171      -13.9146111924
 C         0.7528386229        9.8147988265      -13.4881979740
 C         0.5311769981       10.2928186497      -12.0583798759
 O         0.7072762078        9.5913316798      -11.0920897313
 C        -0.0477639695       11.6411061013      -11.6990771308
 C        -0.3619723278       11.7952016008      -10.2101554549
 C        -1.6735006946       11.0966990722       -9.7222272243
 O        -2.3995926344       10.5818355365      -10.5564459671
 C        -2.0441117321       10.9394051964       -8.1307790810
 C        -1.4518887968        9.4362014288       -7.7198210590
 O        -0.4193637544        9.3057281381       -7.1550701408
 C        -2.3078667453        8.1314623522       -8.0459904014
 C        -1.5232444476        6.7846964714       -7.9689636592
 C        -2.3392480536        5.6017918217       -8.5241112330
 O        -3.5205256337        5.7500383156       -8.7270985062
 C        -1.4761352248        4.1522713819       -8.6203099273
 C        -2.2638677439        3.0381707247       -9.3560855822
 O        -3.1236625046        3.3063186842      -10.1530896822
 C        -2.1192152608        1.5972926937       -8.7989210087
 C        -3.0533613179        0.6109062707       -9.5459866175
 C        -2.7016373645       -0.8525265709       -9.2124392401
 O        -1.8098024855       -1.1480758619       -8.4147468884
 C        -3.6309300678       -2.0025974797       -9.6853704498
 C        -2.5091999156       -3.2956920207       -9.7064710735
 O        -1.8768600580       -3.3790337915      -10.6929262284
 C        -2.3923944817       -4.1623670562       -8.4617181335
 C        -1.0146502273       -4.8816334106       -8.5291198033
 C        -0.9036072604       -6.1343885321       -7.7215676736
 O        -1.7807242988       -6.9537517710       -7.9060630920
 C         0.3040631136       -6.4551731404       -6.8105710897
 C         1.1952791504       -7.5329448745       -7.6082021552
 O         0.5815401040       -8.4456596700       -8.1179781474
 C         2.7629584923       -7.5185522081       -7.6611102009
 C         3.3871204200       -8.9207229080       -7.8079252694
 C         3.2472687920       -9.7312064306       -6.5028179635
 O         2.7929004916       -9.2294989811       -5.4619492536
 C         3.5020730935      -11.2433794740       -6.4676124531
 C         2.4670484095      -11.9766968468       -7.5389839339
 O         2.6304733747      -11.8289007788       -8.6905313951
 C         1.5584999612      -13.0956361532       -7.0473370620
 C         0.7810859321      -13.6561643880       -8.3163546920
 C         0.0221774332      -12.4309316956       -8.9163443198
 O        -0.1202085787      -11.4090300560       -8.2748481255
 C        -0.7813306756      -12.5073424041      -10.3566264551
 C        -2.0446503059      -11.6500856968      -10.1402629106
 O        -1.9620660491      -10.4510959268      -10.1167977410
 C        -3.3564591790      -12.2003073217       -9.7233369191
 C        -4.5277630980      -11.2570614401       -9.6435580802
 C        -4.8288024810      -10.6634030187       -8.2807874478
 O        -4.0701301498       -9.8356081065       -7.7813325695
 C        -6.1567663766      -10.9456255154       -7.6066308118
 C        -7.1836172644       -9.8659027650       -8.3621954324
 O        -7.8633522508      -10.3258299001       -9.2375946240
 C        -7.0448359714       -8.3914706616       -7.9892889682
 C        -7.0182801948       -7.3750849093       -9.1703526569
 C        -6.6685762309       -7.9328530731      -10.5851393843
 O        -5.5880549472       -8.4955553178      -10.6886838701
 C        -7.5984180048       -7.7861464836      -11.8642362071
 C        -7.7513698123       -6.1967787641      -11.9601749263
 O        -6.9275871573       -5.5225726674      -11.3229338770
 C        -8.4402065572       -5.6434641777      -13.2041282830
 C        -9.1421061730       -4.3208179362      -13.0265022877
 C       -10.6908134508       -4.4887320180      -12.4068120232
 O       -10.8895451360       -5.4248832304      -11.6982766897
 C       -11.8387609288       -3.5076973903      -12.7169962481
 C       -13.3771469745       -3.9772314542      -12.3865996657
 O       -13.9778504808       -3.3070833447      -11.6019169464
 C       -13.9459610229       -5.2181255557      -13.1792617502
 C       -11.3317962067       -2.3079144190      -11.9006554887
 C       -11.7937612053       -3.0944118055      -14.1967316746
 C        -6.7979423196       -8.4594840982      -13.0595922651
 C        -8.9400239791       -8.3797135584      -11.6880883429
 C        -6.6021012002      -12.4027368679       -7.9089068977
 C        -6.1129922029      -10.5945265975       -6.0768904137
 C         0.2394190950      -11.7709041944      -11.3409867945
 C        -1.1710983360      -13.9698553797      -10.9606586397
 C         4.9506121336      -11.6389699233       -7.0039152428
 C         3.5036609337      -11.7215135218       -5.0414185357
 C         1.0034624508       -5.1476885899       -6.4987942711
 C        -0.2501934895       -7.2385984685       -5.7051421646
 C        -4.6913890768       -2.2138037649       -8.5460199080
 C        -4.3279095356       -1.5992784584      -10.9797263035
 C        -0.2922305761        4.6037216827       -9.5126034315
 C        -1.2325993351        3.7014203349       -7.1745807718
 C        -1.2139812689       11.9635749316       -7.3418608586
 C        -3.6339043834       10.9291598935       -8.1277499428
 C         2.2257077782        9.8525976623      -13.9675647619
 C        -0.1315576523       10.4590315057      -14.5928876082
 C        -2.0529158804        3.8106214853      -14.7493438554
 C        -1.7658330074        5.8046861313      -16.0548944998
 C        -7.6143371692        7.9425214709      -11.7582055028
 C        -5.9242721563        8.6552154426       -9.9898883012
 H        -7.8787982656        6.6713131643       -8.9066484689
 H        -6.1774946646        6.4715335242       -8.4182309471
 H        -7.2057904842        5.0842840402       -8.4528796955
 H        -5.9128427295        8.3813993248      -14.0961768264
 H        -6.1854898560        6.6667680917      -13.9520730979
 H        -3.3199901137        7.7344292597      -13.9113345383
 H        -4.1153048461        7.2901934866      -15.5137929178
 H         0.3279507227        6.2045566812      -14.8802893551
 H         1.1721328770        5.1128639361      -13.7833382711
 H         1.9584704559        7.3216783830      -12.8574965551
 H         0.6365028597        6.9922225724      -11.9866150540
 H        -1.0214503509       11.6461687206      -12.3010112358
 H         0.5196173020       12.4833430114      -12.0562688451
 H        -0.4113345979       12.8717609316      -10.0039946176
 H         0.5093079111       11.4042000878       -9.5717760199
 H        -2.7014687681        8.2076888021       -9.0012865794
 H        -3.1750882436        7.9856982166       -7.4113399432
 H        -1.0140447520        6.4722416035       -7.0168513609
 H        -0.7043488421        6.9200052542       -8.6669190886
 H        -2.5500744262        1.5796563859       -7.8129357274
 H        -0.9996207157        1.4252023279       -8.6667046723
 H        -2.9728815189        0.6542926146      -10.6914011057
 H        -4.1248661554        0.7903084637       -9.3833312953
 H        -3.1032690282       -5.0266587821       -8.3271738917
 H        -2.3763016848       -3.5100146148       -7.7075172752
 H        -0.3164722621       -4.1025278678       -8.3161872863
 H        -0.8953500564       -5.2205869266       -9.5632712269
 H         3.1405871412       -7.0141874347       -6.8007285666
 H         3.0993677804       -6.9292088077       -8.4756397016
 H         4.4684104496       -8.8592718302       -7.9171552749
 H         3.0106633440       -9.6082637614       -8.5908965998
 H         0.7785003706      -12.6722508743       -6.2203751854
 H         2.1536085539      -13.9127278771       -6.5744133092
 H         0.0568732255      -14.4114198752       -7.9042830689
 H         1.4726980018      -14.0371012220       -9.0301140507
 H        -3.1988639195      -12.6758336073       -8.7076270664
 H        -3.7201565591      -12.9765954749      -10.2410246222
 H        -5.3726155646      -11.7846336383      -10.0787996774
 H        -4.2891997459      -10.3744422394      -10.2119932780
 H        -6.1392467045       -8.1934453323       -7.4494625555
 H        -7.8847278979       -8.1594643392       -7.3347549848
 H        -6.2759410174       -6.5134957083       -8.9723953641
 H        -8.0071091339       -6.7635415736       -9.2566446043
 H        -9.0163267724       -6.5593948229      -13.6292861914
 H        -7.5737117605       -5.3778995394      -13.8592416928
 H        -9.0983975144       -3.7034913540      -13.9754552238
 H        -8.6859765639       -3.7297927703      -12.2782039583
 H       -13.2141821419       -5.6169161703      -13.8676281464
 H       -14.8464444453       -5.1890248860      -13.7122905998
 H       -14.0103963290       -6.0571448811      -12.4810880575
 H       -11.7933531759       -2.5067520613      -10.9205844375
 H       -11.7202888064       -1.3449950281      -12.2363480952
 H       -10.2430387466       -2.2238189966      -11.8105028468
 H       -10.8623201175       -2.4856444687      -14.2341538341
 H       -12.6003153685       -2.4916682795      -14.4112360544
 H       -11.6829746298       -3.8731014089      -14.8301318309
 H        -7.2345771402       -8.2489655790      -13.9671610563
 H        -6.9031853975       -9.5430761592      -12.8683383585
 H        -5.8113121204       -8.1521774958      -13.1688402469
 H        -9.5597289498       -7.8857864312      -10.9538693518
 H        -8.8917077624       -9.4433488979      -11.4612927839
 H        -9.4629963884       -8.2447817075      -12.6342833399
 H        -7.3217966290      -12.6095234608       -7.1109473082
 H        -5.8323258275      -13.1126108013       -7.8663678399
 H        -6.9784106197      -12.4829515836       -8.9333501558
 H        -7.1508872678      -10.5574482619       -5.6138730966
 H        -5.5879048658       -9.6354238801       -6.0225416960
 H        -5.5307180588      -11.2865927550       -5.5054572968
 H         0.8783042188      -12.5830833321      -11.7194051214
 H         0.7091969816      -11.0376709703      -10.7736677722
 H        -0.3669465898      -11.4211243463      -12.1970246990
 H        -0.3038202801      -14.4729052496      -10.9688248806
 H        -1.5755733946      -13.7716538851      -11.9494627784
 H        -1.7816769637      -14.6895842324      -10.3919238862
 H         5.2028142158      -11.0969511805       -7.9611102539
 H         5.1594096700      -12.7652381410       -7.1058925846
 H         5.7691513289      -11.2994772363       -6.3189859979
 H         2.6213155056      -11.3301808970       -4.6089598740
 H         4.3991281891      -11.3140278468       -4.4668125170
 H         3.5193369084      -12.8396549844       -4.9851260813
 H         1.7750049252       -5.4076995422       -5.7855300433
 H         0.4400357124       -4.3081791950       -6.0304221532
 H         1.5536222949       -4.6947090478       -7.3193967519
 H         0.5243658549       -7.4731047016       -5.0136364048
 H        -0.5623102278       -8.1970486202       -6.1448830166
 H        -1.0585830846       -6.7750253596       -5.2347603266
 H        -5.4705474376       -1.5105314949       -8.5324609048
 H        -4.2561358601       -2.0657509037       -7.5564503593
 H        -5.1766036580       -3.1339188800       -8.5339857943
 H        -3.6431854224       -1.0591697276      -11.6425477054
 H        -5.2653309501       -1.0634444142      -10.6467308404
 H        -4.6629052214       -2.4514259377      -11.6100854122
 H         0.5890395158        5.0089769151       -8.9839101742
 H        -0.6286484450        5.4416942627      -10.1095820913
 H         0.0958061325        3.8899363351      -10.2697270401
 H        -0.4848064353        2.8545857048       -7.1828318556
 H        -2.1057393649        3.2708140320       -6.7340351691
 H        -0.8503035840        4.4307260186       -6.4173256503
 H        -1.4883677830       11.8813848746       -6.2793099490
 H        -1.5469345998       12.9634697561       -7.6314647574
 H        -0.1799516511       11.5880151013       -7.5769115441
 H        -3.8554626940       11.4487859134       -9.0670835313
 H        -4.0783209460       11.6472445969       -7.4793691094
 H        -4.0217193310        9.9096162725       -8.3170372959
 H         2.3277581137       10.3561761108      -14.9617549174
 H         2.7218483026        8.9361200414      -14.0372771300
 H         2.8422928986       10.4839542708      -13.2982981432
 H        -0.3245943230        9.7064364646      -15.3904490164
 H         0.4348849259       11.2936691484      -15.0641220465
 H        -1.1472399559       10.7535318670      -14.1867949454
 H        -2.5053126447        3.3277194010      -13.9034767255
 H        -1.1412825868        3.3671027275      -14.8926536408
 H        -2.5912595645        3.4799113249      -15.6317323131
 H        -1.8557254680        6.8896238810      -16.1181221160
 H        -2.5016161994        5.4873324684      -16.8114777178
 H        -0.7858207745        5.4769381657      -16.2669152014
 H        -8.3343992245        7.1092939639      -11.6223333480
 H        -7.5272314365        8.2198509534      -12.8172883581
 H        -8.1608600968        8.7885057423      -11.3108202314
 H        -4.8549452244        8.6708369288       -9.6582725315
 H        -6.5583525504        8.5699120455       -9.0650609714
 H        -6.1596729851        9.7125217251      -10.2382222625
 Na       -3.4852358080        5.3209273006      -11.3326569868
 Na       -1.8152908461       -9.2910638643       -8.0557386042
