232

 C        -7.6553397436        6.2291292644       -9.5753601605
 C        -6.4460898374        6.1910029181      -10.5543063687
 O        -5.7566694468        5.1701817134      -10.6487598738
 C        -6.1182500616        7.6947111407      -11.2837030055
 C        -4.9562538300        7.6208059441      -12.3237046398
 O        -3.7951497202        7.5631532984      -11.8698457133
 C        -5.3210143494        7.5323827560      -13.8143603367
 C        -4.1478815872        7.0269119527      -14.7278522598
 C        -3.6074155725        5.6849326904      -14.1888936566
 O        -4.2462024862        5.0063749918      -13.4213646661
 C        -2.1902257311        5.1974580736      -14.6293310187
 C        -1.1171237014        5.3702509354      -13.5215673226
 O        -1.4417120962        5.2955716224      -12.3490710661
 C         0.4019751277        5.6892764011      -13.8317133226
 C         0.9061377802        7.0324687371      -13.1676194502
 C         0.0808800249        8.3003426960      -13.6901280309
 O        -1.0044132730        8.0236609743      -14.1600045487
 C         0.6893430127        9.6990597030      -13.4834238992
 C         0.5405573567       10.2617194500      -12.0358259223
 O         0.9169109929        9.5293457814      -11.1322114672
 C        -0.0710843278       11.5520878189      -11.7227906878
 C        -0.4162450817       11.7787639886      -10.1830745180
 C        -1.6133631840       10.9868622312       -9.7433569016
 O        -2.3258978694       10.4633003693      -10.5946557363
 C        -1.8334643933       10.8601367052       -8.1838496979
 C        -1.2341564706        9.3833480177       -7.8937236833
 O        -0.1452872411        9.3084240108       -7.2973547504
 C        -2.1777801857        8.2830830146       -8.1644731910
 C        -1.3604339137        6.9748361015       -8.3433925045
 C        -2.1931210597        5.6926464438       -8.4720801806
 O        -3.4063089650        5.6984788892       -8.6180754816
 C        -1.4897223236        4.2735287376       -8.5351742187
 C        -2.3940753962        3.1186548452       -9.2006877962
 O        -3.0545932722        3.2970195178      -10.2078264322
 C        -2.2750979972        1.6782722353       -8.6858599762
 C        -2.8600202272        0.6757780887       -9.5919199680
 C        -2.7716348678       -0.8531730682       -9.0703097572
 O        -1.9130205496       -1.1766991194       -8.2873148969
 C        -3.7134074949       -1.9940993300       -9.5934933799
 C        -2.6722049589       -3.1400950903       -9.7229636208
 O        -2.0021161684       -3.2217613742      -10.7647188105
 C        -2.5313616292       -4.1951088273       -8.5649681626
 C        -1.0760789788       -4.8583995758       -8.4898041590
 C        -1.0445767867       -6.1758231259       -7.7635108161
 O        -1.8298947472       -7.0063563777       -8.2150292454
 C         0.0753493740       -6.5511601492       -6.7681174109
 C         1.0384277099       -7.6622148625       -7.3658898199
 O         0.5298637779       -8.6624993867       -7.7777678348
 C         2.5409015039       -7.4917012094       -7.5155211208
 C         3.2619140328       -8.8018257103       -7.8392170368
 C         3.2642324328       -9.7226865654       -6.5518452360
 O         3.1208090117       -9.2026766513       -5.5104907189
 C         3.7135993215      -11.3903618560       -6.5811210358
 C         2.7429262425      -12.1232220510       -7.6177642172
 O         2.7708129400      -11.8149716760       -8.8162983845
 C         1.6760841483      -13.1541338313       -7.1825715209
 C         0.7458778697      -13.6512620446       -8.3008928552
 C         0.0246596022      -12.3052135314       -8.8342593643
 O        -0.1267160329      -11.3114658566       -8.1502344088
 C        -0.6455955676      -12.4093202235      -10.3446495437
 C        -1.9731417903      -11.6302468375      -10.1931208040
 O        -1.9909971801      -10.3799951367      -10.3382991835
 C        -3.1956785040      -12.2824429004       -9.7276949488
 C        -4.4775941446      -11.2839668339       -9.7006934970
 C        -4.7210440843      -10.6533379770       -8.3374485505
 O        -3.9006307308       -9.8894497088       -7.8281693838
 C        -6.1287114064      -10.7761487535       -7.6422276511
 C        -7.2727223065       -9.8281016424       -8.3418734237
 O        -8.0066344158      -10.2469126006       -9.2067533735
 C        -7.2652296084       -8.4518006771       -7.8247490044
 C        -7.2655630459       -7.4081301506       -8.9647589435
 C        -6.6758309655       -7.8771944728      -10.3337215959
 O        -5.6206138331       -8.4860245394      -10.3009485468
 C        -7.5630722616       -7.7268408829      -11.6556642906
 C        -7.8915182238       -6.1233200461      -11.8175723556
 O        -7.4478668682       -5.2006254429      -11.1624798928
 C        -8.5512723808       -5.8441772139      -13.2208917431
 C        -9.2746585818       -4.4650469411      -13.1388791018
 C       -10.6892525333       -4.5893920804      -12.4430746734
 O       -10.9878403626       -5.5831104663      -11.7938524764
 C       -11.8095265864       -3.5146884564      -12.7409655445
 C       -13.3017563346       -4.0540992383      -12.4028359695
 O       -13.8876366125       -3.4085346141      -11.5325184569
 C       -13.7595849625       -5.2008310760      -13.2191767001
 C       -11.7710120006       -2.1691325776      -11.8984432008
 C       -11.7854765949       -3.1039785257      -14.1912530998
 C        -6.8490178175       -8.3660246005      -12.8744226889
 C        -8.8942773104       -8.3689748464      -11.2991608852
 C        -6.5334759586      -12.2685811342       -7.8635285134
 C        -6.0054941091      -10.5309478779       -6.1781395913
 C         0.3120057867      -11.5118058826      -11.1482967342
 C        -0.8222264939      -13.7469492024      -11.0130519205
 C         5.0776934225      -11.4517364653       -7.1651139747
 C         3.4727482536      -11.9536765410       -5.1659517993
 C         0.8647319427       -5.4564111521       -6.1187723705
 C        -0.5320489562       -7.2080356062       -5.4237581619
 C        -4.8992725356       -2.3106015221       -8.7478659632
 C        -4.2161581242       -1.8655710959      -11.1396026372
 C        -0.2550958415        4.2837124202       -9.4698979188
 C        -0.8460824820        3.9747954136       -7.1075072201
 C        -1.2451490646       11.9703889067       -7.2969855178
 C        -3.3875742627       10.9055262767       -7.8691235903
 C         2.2195316391        9.6536914417      -13.6699738763
 C         0.0692535643       10.6725304843      -14.4907682173
 C        -2.3520471548        3.6732266059      -14.8044369344
 C        -1.7411840568        5.9449245424      -15.9677530616
 C        -7.4619335542        8.0628220193      -11.7758808025
 C        -5.5721216587        8.6129951483      -10.1547015035
 H        -8.5784982648        6.3512928008      -10.0980422908
 H        -7.4780045959        6.9825156425       -8.7898610307
 H        -7.6547310664        5.2910107702       -9.0141859648
 H        -5.5312389557        8.5770737636      -14.1250177342
 H        -6.2652108362        7.0670979520      -13.8342742897
 H        -3.3433942477        7.7625890726      -14.7116829791
 H        -4.5991902909        6.8299878299      -15.7274179689
 H         0.6620135961        5.7006118826      -14.8987570289
 H         1.1031138166        4.9818254664      -13.3605104985
 H         2.0543402164        7.0676491267      -13.3522212644
 H         0.9503506522        7.0015273034      -12.0404849239
 H        -0.9664197541       11.6638779735      -12.2678502024
 H         0.5518788637       12.3894127087      -12.1175213629
 H        -0.7143793022       12.8502969622      -10.1892569623
 H         0.3122625205       11.7413134217       -9.4476641942
 H        -2.8183839723        8.4989382187       -9.0818647884
 H        -2.8502222749        8.2861993535       -7.2814645547
 H        -0.6444897664        6.8260386761       -7.5650672610
 H        -0.7769138701        7.1968246351       -9.2618052661
 H        -2.7416878293        1.5809324398       -7.6870015089
 H        -1.2196676120        1.5407363637       -8.6024569561
 H        -2.4372654951        0.8132908649      -10.5512664772
 H        -3.9273531013        0.8376289523       -9.8433589138
 H        -3.2046457817       -4.9785312588       -8.8362856631
 H        -2.7237931440       -3.8190253401       -7.4019177473
 H        -0.4558083475       -3.9907443557       -8.1878248688
 H        -0.8064590660       -5.1342933063       -9.5420046882
 H         2.9924603093       -7.0005338267       -6.6079111422
 H         2.8078858882       -6.7286247527       -8.3183440666
 H         4.3093175743       -8.5273739354       -8.1273056306
 H         2.8303633306       -9.4001840413       -8.6424174906
 H         1.1545920968      -12.7154599811       -6.4379532669
 H         2.2263200756      -14.0125411154       -6.7616721256
 H        -0.0155924299      -14.2562443436       -7.8467514334
 H         1.3069721694      -14.2113267010       -9.0693337367
 H        -2.9744754848      -12.7170521331       -8.7896586767
 H        -3.4452424711      -13.2750076856      -10.3342376354
 H        -5.3737283429      -11.8290907518       -9.9190886627
 H        -4.3467460299      -10.4537761073      -10.4107878597
 H        -6.3556056286       -8.2839207644       -7.1975785933
 H        -8.2089903170       -8.2872850530       -7.2633203824
 H        -6.7281283569       -6.5562360061       -8.6807626256
 H        -8.2186166344       -7.0794623795       -9.1423720893
 H        -9.0579583226       -6.6460389440      -13.5950901384
 H        -7.6800934133       -5.6031392143      -13.7910304365
 H        -9.4249192905       -4.0649119788      -14.1094179746
 H        -8.7345130078       -3.6444172880      -12.5656460359
 H       -13.1334591978       -5.3516975550      -14.1225445204
 H       -14.7843190342       -5.0279431702      -13.7143454594
 H       -13.8392289617       -6.1540332568      -12.7202163146
 H       -12.2171033060       -2.0807476637      -10.8784122381
 H       -12.1642405697       -1.4314899262      -12.6119843158
 H       -10.7236628324       -1.8708741775      -11.9190097844
 H       -11.1049021046       -2.2971463474      -14.3401786883
 H       -12.8124614199       -2.6893850646      -14.3817268494
 H       -11.5581658354       -3.9952542184      -14.8977961955
 H        -7.5598515696       -8.1637457120      -13.7473984653
 H        -6.6599999229       -9.3989794249      -12.6180819678
 H        -5.9347372935       -7.8964088673      -13.2599866462
 H        -9.2451278654       -8.0583333604      -10.3443572219
 H        -8.8780831736       -9.4349814849      -11.2785077963
 H        -9.6553410086       -7.9711937342      -12.0144639266
 H        -7.0987587091      -12.5755459652       -7.0131726310
 H        -5.6283477223      -12.9514479105       -7.9026179451
 H        -6.9653047206      -12.3728847054       -8.8446209484
 H        -6.9892179230      -10.6403726588       -5.8390036303
 H        -5.6255085581       -9.5854339213       -5.8446173078
 H        -5.4550156729      -11.3836208348       -5.7316838813
 H         1.0744080169      -12.1745315199      -11.5271769948
 H         0.6400153053      -10.7714030862      -10.3722644131
 H        -0.2073254875      -11.0867964156      -11.9750557271
 H         0.1848464506      -14.3005461155      -11.1952784570
 H        -1.5105747515      -13.5903635429      -11.8576205379
 H        -1.2865334201      -14.4445886376      -10.3144013281
 H         5.3605927947      -10.7933633074       -7.9855488530
 H         5.3734964858      -12.4767894721       -7.4216046950
 H         5.7830326720      -11.1698784135       -6.3792133841
 H         2.3710826779      -12.0622037032       -4.8484907361
 H         3.9866102862      -11.2526953691       -4.5115811150
 H         4.0170544090      -12.9165055638       -5.0819301543
 H         1.5665664463       -5.8614380812       -5.3442653901
 H         0.2337758558       -4.7024538648       -5.6639296534
 H         1.5482097468       -4.8820988345       -6.7989304044
 H         0.3747848864       -7.4674411517       -4.8340179237
 H        -1.1655272330       -8.0202337464       -5.5568230769
 H        -0.8782617101       -6.3800819770       -4.7362769835
 H        -5.7773467032       -1.6170992220       -8.9865198068
 H        -4.8004476869       -2.3942863365       -7.6811223837
 H        -5.4393039278       -3.2176689858       -9.1526406271
 H        -3.3939201501       -2.1237082017      -11.8489303086
 H        -4.7173375975       -0.9261442237      -11.3225431924
 H        -4.9431553796       -2.6336894177      -11.2935099983
 H         0.6318376853        4.6540829781       -9.0095138199
 H        -0.3238147389        4.8224599721      -10.4345896706
 H        -0.0850391216        3.2660577199       -9.7703628147
 H        -0.2776053540        3.0954796248       -6.9572244381
 H        -1.6218528995        4.0225004684       -6.2849949789
 H        -0.2559833662        4.8295850855       -6.7895485557
 H        -1.4880477158       11.7619338911       -6.2634852401
 H        -1.8088513689       12.8492684293       -7.5778942482
 H        -0.1788038519       11.9226946990       -7.3699412913
 H        -3.9157592100       11.8780401956       -7.8096411793
 H        -3.3284049493       10.6149427880       -6.7824022434
 H        -3.8936816668       10.2387905836       -8.5478681540
 H         2.6369965671       10.6341750609      -13.7001199013
 H         2.4726234216        9.1447082867      -14.6683242405
 H         2.7542809193        9.0373034088      -12.9372081645
 H         0.2642227330       10.2936392948      -15.4843432023
 H         0.5846098783       11.6002989524      -14.4587952885
 H        -0.9493822130       10.7439296817      -14.2528923290
 H        -2.3968805279        3.1737552604      -13.7885807219
 H        -1.3907596413        3.1504313158      -15.1828397041
 H        -3.1464192692        3.2713194105      -15.4435975089
 H        -1.2545802762        6.9411370022      -15.8525723856
 H        -2.6252003408        6.1890670568      -16.5059867873
 H        -1.0778044912        5.3049367911      -16.6088235384
 H        -8.1625881560        7.2591439222      -11.8244698563
 H        -7.3895542465        8.5910327778      -12.7069826338
 H        -7.9544934612        8.8213670760      -11.1941191723
 H        -4.9691864057        8.0509522170       -9.4244345107
 H        -6.2367987477        9.2680257327       -9.6289590010
 H        -4.8637354978        9.3289647938      -10.5279340869
 Na       -3.5885304053        5.2661743290      -11.2102542165
 Na       -1.7576698183       -9.3246560602       -8.2971771082
