232

 C        -8.2165913332        6.7814773932      -12.1302343476
 C        -6.8046327710        6.9514501898      -11.4110839860
 O        -6.2434910588        6.0694294579      -10.8372701533
 C        -6.0912974047        8.4124185876      -11.5618656642
 C        -4.9075858008        7.9487649641      -12.4195797713
 O        -3.8637193446        7.6852792827      -11.9180832366
 C        -5.2637115114        7.6517847202      -13.8995597379
 C        -4.1646159915        7.0533384802      -14.6952512186
 C        -3.8354651682        5.6597835453      -14.1869412595
 O        -4.5636215682        5.0831664184      -13.4018362706
 C        -2.5184953841        4.9825197788      -14.5966714747
 C        -1.4578748625        5.4462481698      -13.5758303859
 O        -1.7597203539        5.5969421667      -12.4083712020
 C        -0.0189898293        5.5337524328      -14.0015450373
 C         0.7726229002        6.8029619636      -13.5557462518
 C         0.2048875686        8.0948923188      -14.1453157723
 O        -0.7634116938        8.0512745819      -14.8999215206
 C         0.8793217012        9.4303673775      -13.6907104511
 C         0.4143671530        9.7243375991      -12.1838649024
 O         0.5092646589        8.9466678775      -11.2692286612
 C        -0.1781185327       11.1095183816      -11.8274335562
 C        -0.2166729670       11.3469781556      -10.3449206888
 C        -1.4124385102       10.9720582960       -9.5338785507
 O        -2.5492685121       10.9491806132      -10.0256626345
 C        -1.2233251889       10.4933157325       -8.0597001707
 C        -0.5824204465        9.0962525078       -8.0113151660
 O         0.4895849801        9.0167815908       -7.5365562297
 C        -1.4750794588        7.9462626747       -8.6106997913
 C        -0.7473343998        6.6051414565       -8.6950803010
 C        -1.6682972503        5.4457545224       -8.8215424128
 O        -2.8006439627        5.6628650126       -9.1994758336
 C        -1.0136658070        4.0256139709       -8.4865620915
 C        -2.0009719607        2.8718950492       -8.9761395002
 O        -2.7040030864        3.1466198395       -9.9172225543
 C        -2.1009542122        1.4951752407       -8.3542492159
 C        -3.3094610850        0.6611200379       -8.8682885514
 C        -3.0060351955       -0.8832583949       -8.7280284234
 O        -2.5984987345       -1.3588075309       -7.6715967783
 C        -3.5644123022       -1.9833089324       -9.7714492716
 C        -2.4297866572       -3.0949996744       -9.6756903162
 O        -1.3927559269       -3.0197078475      -10.2756958477
 C        -2.6200309030       -4.1832360789       -8.6105650925
 C        -1.2529438167       -4.7650087012       -8.2001565979
 C        -1.1380693401       -6.2495353184       -7.9772148350
 O        -1.5910816075       -7.1064481317       -8.7586890957
 C        -0.3750876293       -6.7371185027       -6.5572147952
 C         0.7336541611       -7.8586962321       -6.9235500787
 O         0.4904393074       -8.9876137140       -7.3424227929
 C         2.1798902706       -7.5348051939       -6.6797086195
 C         3.0400798675       -8.6047977668       -7.3090430683
 C         3.3017467928       -9.8060340506       -6.3527312124
 O         2.9653590755       -9.6138938802       -5.1658405127
 C         4.0282526822      -11.0045260283       -6.9336226093
 C         3.0301909833      -11.7056269237       -7.9898911984
 O         3.1944762301      -11.7581448543       -9.1683550290
 C         1.6727670388      -12.2781181242       -7.4843700148
 C         0.9340358590      -12.9471604260       -8.5778368189
 C        -0.2852857171      -12.1303940821       -8.9443138387
 O        -0.9274607937      -11.7085088431       -8.0476030775
 C        -0.5918463072      -11.9665076566      -10.4430583474
 C        -1.9894632185      -11.1383829265      -10.3150206935
 O        -1.9123366252       -9.9036398354      -10.4259120114
 C        -3.4287443412      -11.8390068844      -10.1120376111
 C        -4.5844288732      -10.8517323390       -9.5942367674
 C        -4.6063670588      -10.6656771958       -8.1011107161
 O        -3.6653080969      -10.1988414871       -7.4482836650
 C        -5.8742525894      -11.0582197237       -7.3137838119
 C        -7.0321032171      -10.1636770405       -7.8874585079
 O        -7.8165946204      -10.5726097678       -8.7123824831
 C        -7.1471194660       -8.6394340132       -7.4774043131
 C        -7.7882561695       -7.7038951904       -8.5422196473
 C        -7.0280195755       -7.5688631260       -9.8666933044
 O        -5.7951028244       -7.4583283795       -9.8455512518
 C        -7.8371790612       -7.4614132274      -11.2658487542
 C        -8.2832261002       -5.9848667450      -11.4534266528
 O        -8.7939990627       -5.3108158650      -10.5467003931
 C        -8.4041243058       -5.4333615919      -12.8995227392
 C        -9.4482437316       -4.3303542058      -12.8151966523
 C       -10.9224166681       -4.8989688869      -12.7460103025
 O       -11.2162398058       -6.0701820517      -12.6656459276
 C       -11.9065009674       -3.7737932881      -12.7971214949
 C       -13.3841315086       -4.2452128133      -12.3356057179
 O       -14.0482592926       -3.5990894512      -11.5580653413
 C       -13.9153425703       -5.5318153016      -13.1267668707
 C       -11.6687384027       -2.6268088068      -11.7582344064
 C       -12.0535190292       -3.2070962124      -14.2647929396
 C        -7.0593164141       -8.0166553920      -12.4783931534
 C        -9.2660847379       -8.2979620995      -11.0189068795
 C        -6.1105694607      -12.5662233723       -7.5665390918
 C        -5.6062583034      -10.7138081223       -5.8499440437
 C         0.3676261121      -10.9817974340      -11.1453115467
 C        -0.7032058573      -13.2178655030      -11.2153671852
 C         5.2275720387      -10.4838082133       -7.6993963899
 C         4.3502035269      -12.0726615473       -5.8614913565
 C         0.2783811321       -5.7043382105       -5.4972567071
 C        -1.5941647199       -7.3595304576       -5.6932870339
 C        -4.9387980436       -2.3896120948       -9.3240057108
 C        -3.5401840155       -1.5366107025      -11.2311256472
 C         0.3302263115        3.8213777636       -9.1619566454
 C        -0.7887390179        3.9125258980       -6.9425003562
 C        -0.4973124821       11.5761939042       -7.2206451605
 C        -2.7328614442       10.3982355167       -7.4538842343
 C         2.3651809679        9.3759895978      -13.4863866942
 C         0.5210720446       10.5796523178      -14.6887471640
 C        -2.6903175113        3.3342956075      -14.4962485518
 C        -2.1379802042        5.3005984142      -16.1627395663
 C        -6.8736382541        9.5305324543      -12.1461203338
 C        -5.6281168932        8.6863891368      -10.1448258386
 H        -8.1411012911        7.2006229890      -13.1466999978
 H        -9.0579877332        7.3703597926      -11.6474815157
 H        -8.3975923383        5.7110797532      -12.0990979078
 H        -5.5791852603        8.6329410796      -14.4022363716
 H        -6.0676839653        6.9181887382      -13.8813813244
 H        -3.2093378856        7.5884379626      -14.7381125389
 H        -4.4060585428        6.8021039857      -15.7413153226
 H         0.1999790900        5.4695979190      -15.0379878913
 H         0.5222583564        4.7526181235      -13.4879994409
 H         1.8010685863        6.4690025307      -13.9330456810
 H         0.8444804189        6.8632768205      -12.5102016656
 H        -1.1295844376       11.2785347250      -12.3441906264
 H         0.4519420812       11.9412674823      -12.3105315488
 H         0.0941878174       12.4490982962      -10.1819554186
 H         0.5990166779       10.8071973092       -9.9063669474
 H        -1.5742036797        8.2169410902       -9.6477039767
 H        -2.4438287453        7.8892221972       -8.2048692970
 H        -0.0839604336        6.4512604424       -7.8367803205
 H        -0.2490175008        6.5511055657       -9.6872746806
 H        -2.1762249135        1.6619227321       -7.3001504111
 H        -1.2250941933        0.8454203808       -8.4099734385
 H        -3.6913415483        0.9550069671       -9.8707950113
 H        -4.1685880838        0.8525636845       -8.1138717268
 H        -3.3630902869       -5.0250829532       -8.9013922821
 H        -3.0530897285       -3.9297063697       -7.7153849842
 H        -1.0206055679       -4.2055315811       -7.3516825851
 H        -0.4401401142       -4.4381333106       -8.8478060319
 H         2.4098814389       -7.6151608407       -5.6440492639
 H         2.3623377906       -6.4952802698       -6.9087048817
 H         4.0185769464       -8.1227256422       -7.5891837520
 H         2.5723940603       -8.9173539873       -8.2405898356
 H         1.1226952151      -11.3825482839       -7.0217751951
 H         1.7802700356      -12.8852550335       -6.5759771213
 H         0.6557428403      -14.0041398719       -8.4526419981
 H         1.6093069975      -13.0420613469       -9.4154802559
 H        -3.2365535572      -12.7126142018       -9.5499286107
 H        -3.7835465278      -12.1680239640      -11.1335847860
 H        -5.5422253949      -11.2483706093       -9.8660579802
 H        -4.5331782715       -9.8704541520      -10.0763416510
 H        -6.1389801562       -8.2767588769       -7.2256797789
 H        -7.7212756622       -8.6356587705       -6.5392414262
 H        -7.8428687447       -6.6291129700       -8.2150138736
 H        -8.7984679269       -8.1392016275       -8.7126679634
 H        -8.7356932917       -6.2280082679      -13.5497962378
 H        -7.4136657473       -5.0251868740      -13.2918813363
 H        -9.2389333956       -3.7062067395      -13.6884419960
 H        -9.4008017949       -3.6814645555      -11.9150277594
 H       -13.7016609231       -5.3196117996      -14.1686449545
 H       -14.9842318606       -5.5586408378      -13.1268400747
 H       -13.5932525925       -6.4975279595      -12.9094991643
 H       -12.0747992761       -2.8196938686      -10.7241214387
 H       -12.1825748011       -1.7697693725      -12.1457261639
 H       -10.6749205685       -2.4544759981      -11.6295807758
 H       -11.4016280020       -2.2984107812      -14.4135011322
 H       -13.0210208895       -2.8778628710      -14.2626158627
 H       -11.8955317296       -3.8822875160      -15.0529383983
 H        -7.6807433736       -8.1489023278      -13.3102457802
 H        -6.7049439780       -9.0323663282      -12.2303226195
 H        -6.2490913533       -7.4206385887      -12.7063774803
 H        -9.7998870153       -7.8997582281      -10.1958479385
 H        -9.1913436735       -9.3875577171      -11.0391855269
 H        -9.8770495397       -8.0901937846      -11.9716211836
 H        -6.6863550397      -13.0391253730       -6.8186815906
 H        -5.1093665236      -12.9894082470       -7.6021676824
 H        -6.7106031437      -12.6787337581       -8.4398879147
 H        -6.5411218037      -10.8183863544       -5.2588268667
 H        -5.2577840967       -9.6894750999       -5.7760404900
 H        -4.7834124801      -11.3402204799       -5.3872184198
 H         1.2384536432      -11.5026651824      -11.5910967484
 H         0.6657816958      -10.1769347285      -10.5079072535
 H        -0.3170328689      -10.5790237664      -11.8775199909
 H         0.0679104041      -13.8976880439      -11.1873975220
 H        -0.7751919107      -12.9782246691      -12.2973787760
 H        -1.6954592426      -13.6854241405      -11.0213840246
 H         5.1177256853       -9.8736983009       -8.6029856371
 H         5.8479497177      -11.3571852895       -8.0187898319
 H         6.0101020873      -10.0300664476       -7.1113175161
 H         3.6061746449      -12.7694566845       -5.5754268504
 H         4.7635345355      -11.6628543626       -4.9145754224
 H         5.1976986802      -12.6960187733       -6.2374227015
 H         0.5670238753       -6.1750356349       -4.5704383754
 H        -0.4042793759       -4.9180672590       -5.3080699285
 H         1.1066648641       -5.1205249818       -5.8452037224
 H        -1.1464541192       -7.9119251942       -4.9092640444
 H        -2.3249367840       -8.0064107108       -6.2083579325
 H        -2.0667731070       -6.5036721639       -5.3378266071
 H        -5.4712642150       -1.4937807239       -9.1216980030
 H        -4.9951739683       -3.0067028819       -8.4403971897
 H        -5.3701580772       -2.9109622805      -10.0868377327
 H        -2.5767374450       -1.0576041017      -11.4833555310
 H        -4.2772882495       -0.7194758425      -11.3449984905
 H        -3.9316241321       -2.2827621993      -11.8656778585
 H         0.0806384144        3.3617456757      -10.1033496544
 H         1.0435310686        3.1324992381       -8.6558750518
 H         0.8059677946        4.7358520455       -9.5198121363
 H        -0.6933626521        2.9047117977       -6.5684385669
 H        -1.5378120105        4.2702410606       -6.2502857337
 H         0.1774042908        4.3542245122       -6.5848552579
 H        -0.4136795052       11.1895570551       -6.2323791987
 H        -1.0446001337       12.5592436322       -7.2994210485
 H         0.5092597740       11.8277599177       -7.7104418510
 H        -2.6934914649        9.4264382889       -6.8919089845
 H        -3.3200573759       10.5437704674       -8.3454949695
 H        -2.9315004569       11.2176555489       -6.7273331277
 H         2.6067570241       10.1833771782      -12.8243245626
 H         2.9883111171        9.4261133004      -14.3790855479
 H         2.6140181144        8.5262765952      -12.8625146729
 H         1.1318255574       10.4150690656      -15.6254720780
 H         0.5812995003       11.5458997587      -14.1619205675
 H        -0.5170098544       10.3157014311      -14.9731675187
 H        -2.4473582438        2.9328518061      -13.5255694190
 H        -2.0323254711        2.8778513249      -15.1443600313
 H        -3.6723516862        2.9708923538      -14.6380136834
 H        -2.1158132679        6.4010227868      -16.3747737312
 H        -2.8330500468        4.8521255738      -16.8215127937
 H        -1.1168232674        4.9738442071      -16.4485614480
 H        -7.0099823628        9.4720802719      -13.2369309207
 H        -6.3266359552       10.4482057851      -12.0975641143
 H        -7.8124861896        9.5338139645      -11.5766927550
 H        -5.5027317574        7.7176813700       -9.6011119724
 H        -6.3855988174        9.1603299254       -9.5109919520
 H        -4.6866758068        9.1891315264      -10.0071885684
 Na       -3.7031520929        5.1255078995      -11.2416027554
 Na       -1.5613742884       -9.5299603107       -8.3317439989
