232

 C        -7.8846005592        6.8696182955      -12.2687199897
 C        -6.4543094419        6.9799487530      -11.7261087531
 O        -5.9034022471        5.9385263019      -11.4881673810
 C        -5.6673547672        8.4042063599      -11.7691646494
 C        -4.4194934090        8.1506735509      -12.6616774153
 O        -3.4541943201        7.6270901946      -12.1268114267
 C        -4.3928261737        8.3024837823      -14.1808050337
 C        -3.4410150272        7.3459281945      -14.7858890518
 C        -3.8200748812        5.9063951720      -14.4709269783
 O        -4.9357332533        5.6772401378      -14.0262088961
 C        -2.6869724965        4.7400832945      -14.5774964584
 C        -1.5467390464        5.0936422992      -13.5054608418
 O        -1.8324658241        5.2591494836      -12.3688576864
 C        -0.0018836628        5.1420313071      -13.9463269014
 C         0.6745822859        6.4572239494      -13.3737212549
 C         0.1751123794        7.6329888888      -14.1847179472
 O        -0.4780926857        7.3680104526      -15.1640941353
 C         0.5233860931        9.0390205590      -13.7488353192
 C         0.1176486113        9.3705197440      -12.3109573266
 O        -0.1242811210        8.4654170974      -11.5496595004
 C         0.2284824020       10.8732752360      -11.8329225793
 C         0.4999371991       11.0229869595      -10.3568813190
 C        -0.6717941063       10.7501678793       -9.4039401813
 O        -1.7398558269       10.4282337656       -9.8381680704
 C        -0.4273335013       10.5987912747       -7.9432451548
 C        -0.1034370621        9.0133924184       -7.8369317437
 O         0.9834047575        8.5476261695       -7.7063248608
 C        -1.2263566666        7.8682590496       -8.1754490596
 C        -0.6559608352        6.5489807863       -8.7654128097
 C        -1.8423930423        5.5553749142       -9.0490783795
 O        -2.9961086230        5.9060347905       -9.0573133614
 C        -1.5321404257        4.0207040102       -8.7061166699
 C        -2.6035290638        3.0123465123       -9.3600150891
 O        -3.3940300911        3.4060942318      -10.2002857921
 C        -2.6733901327        1.6528705107       -8.7715863050
 C        -2.8385003962        0.6021420662       -9.9381405906
 C        -3.1477488683       -0.7399166763       -9.1610056990
 O        -3.1319080934       -0.7196863491       -7.9620624690
 C        -3.2876916915       -2.1821630840       -9.9360300009
 C        -1.9569646976       -2.9111392722       -9.2625551558
 O        -0.9252001628       -2.4343443453       -9.6673500860
 C        -2.1159560891       -4.1259086051       -8.3445456150
 C        -0.7928407156       -4.6491758529       -7.7528774333
 C        -1.0503521735       -6.1020687090       -7.2511105268
 O        -1.8846070401       -6.8078571760       -7.7880122776
 C        -0.4798417614       -6.5123275069       -5.9459839056
 C         0.7748661757       -7.3696328541       -6.3829788584
 O         0.6589934886       -8.1141740241       -7.3329808252
 C         2.1792316852       -7.3288603834       -5.6498071906
 C         3.2037463145       -8.1835710859       -6.3818263962
 C         2.9705329669       -9.7327492576       -6.5049130077
 O         2.1714685378      -10.3101809771       -5.8234516310
 C         3.8856365775      -10.5752984034       -7.4301750540
 C         2.8225272353      -11.2546198897       -8.4729257071
 O         2.6508823239      -10.8368086113       -9.6187892263
 C         2.1536874004      -12.6378072153       -8.0266158223
 C         0.9362841549      -12.9075990456       -8.8875401878
 C         0.0615575233      -11.7812132304       -9.2693812478
 O        -0.0685457496      -10.9417922722       -8.3420691642
 C        -0.7784499272      -11.7528630653      -10.5946179475
 C        -2.0030858804      -10.8760586383      -10.2831544284
 O        -1.9074717944       -9.6948014222      -10.3058504175
 C        -3.3281075962      -11.6008612539       -9.7905478531
 C        -4.4439082888      -10.5887863792       -9.5559550031
 C        -4.5628557651      -10.5341850322       -8.0754064639
 O        -3.6004032522      -10.1884270044       -7.3878795263
 C        -5.7785544474      -11.1344576286       -7.3637997551
 C        -7.1665947673      -10.4178847892       -7.7996649419
 O        -8.0886734473      -10.9906804446       -8.3637820055
 C        -7.3946098656       -8.9723495991       -7.2388606945
 C        -8.2470369018       -8.2229754110       -8.1960445829
 C        -7.4751369868       -8.1081608135       -9.5437979937
 O        -6.3286028785       -8.5362587625       -9.5198198461
 C        -8.0766490302       -7.5909129476      -10.9161220708
 C        -8.6908341085       -6.0959785769      -10.6923856525
 O        -8.8098227766       -5.5123126464       -9.6086139744
 C        -8.7949855856       -5.3269078815      -12.0229117628
 C        -9.9175014514       -4.2930570281      -12.0299600322
 C       -11.1602811818       -4.7354870769      -12.8392490578
 O       -11.1633005805       -5.7848274622      -13.4386155133
 C       -12.3996026163       -3.7458916836      -12.9869959643
 C       -13.6646704856       -4.5975946585      -12.3680399180
 O       -13.9461023721       -4.5542872248      -11.2010227213
 C       -14.3714727511       -5.4390345078      -13.3197242444
 C       -12.2209228141       -2.4801961645      -12.1054879890
 C       -12.6290837034       -3.3511339090      -14.4386009699
 C        -7.0294075067       -7.6369164744      -12.1052453613
 C        -9.3335093146       -8.5243590556      -11.2803157535
 C        -5.7955083331      -12.7060826869       -7.6012259842
 C        -5.7105031223      -10.7608970777       -5.8022309953
 C         0.1035396561      -11.0650902277      -11.5275095900
 C        -1.1821978397      -13.1858728854      -11.0746952983
 C         4.9002708989       -9.7671347469       -8.1969408857
 C         4.5230597351      -11.5714939526       -6.6132327215
 C         0.0661842557       -5.3219210354       -5.0882652687
 C        -1.4700159991       -7.5076377268       -5.1439905704
 C        -4.6151101016       -2.9558776162       -9.5063387450
 C        -3.1695241011       -2.0095437982      -11.4280779720
 C        -0.2615645835        3.5680598082       -9.5243249462
 C        -1.4586414826        3.8624446037       -7.1936326374
 C         0.7688982637       11.2792526047       -7.3018852330
 C        -1.8162854062       10.8809396879       -7.1637505186
 C         2.0109957037        9.1945968100      -13.9618885436
 C        -0.0834761873       10.0442684184      -14.7487694444
 C        -3.2552198392        3.2693844153      -14.1902933225
 C        -2.1814077979        4.7753365416      -16.0936788207
 C        -6.5120341454        9.5821698221      -12.3278476759
 C        -5.2331626146        8.8342916231      -10.2979962335
 H        -7.7200636850        6.4406057430      -13.2681658702
 H        -8.3897579346        7.8060350994      -12.1627167473
 H        -8.5340032556        6.0996308884      -11.7898764371
 H        -4.0848759291        9.3161187265      -14.4900839260
 H        -5.4174027521        8.1229662390      -14.6367010369
 H        -2.3859489538        7.4680721344      -14.5465294620
 H        -3.3223490119        7.2993152361      -15.8613700726
 H         0.1992202293        5.0502573635      -15.0181192895
 H         0.4945422400        4.2888463782      -13.4993878966
 H         1.6995368808        6.1875284045      -13.4894400924
 H         0.4414983935        6.5617562573      -12.3030620786
 H        -0.7294119088       11.4172734865      -12.0318253865
 H         1.1441236728       11.2936181216      -12.2853062613
 H         0.7532979902       12.0657417951      -10.1522427064
 H         1.3800828242       10.3287711828      -10.1406533367
 H        -1.9102230844        8.2892409469       -8.8705078540
 H        -1.7541646841        7.7210629787       -7.2277591317
 H         0.0314151484        5.8954784148       -8.1120652278
 H        -0.0296502927        6.8301906506       -9.6310296774
 H        -3.4054685537        1.5070917793       -8.0218171369
 H        -1.6975341339        1.5141709578       -8.2972651653
 H        -1.8098494979        0.4949898449      -10.3229111524
 H        -3.5319805938        0.8609795140      -10.7716799395
 H        -2.5841662274       -4.9687708933       -8.7663639414
 H        -2.7711974689       -3.8245055931       -7.3766424527
 H        -0.5181902462       -4.0331402672       -6.8851655407
 H        -0.0785588254       -4.5607624990       -8.4885138044
 H         2.0928868949       -7.7905825628       -4.7032860238
 H         2.4125044317       -6.2783199657       -5.6413590459
 H         4.1687275656       -8.0195034553       -5.9206895955
 H         3.2207370046       -7.6907531061       -7.3697996383
 H         1.8126939461      -12.4738199273       -7.0136795751
 H         2.9079091525      -13.5069748940       -8.1635558010
 H         0.3351222962      -13.7208274850       -8.3550887228
 H         1.2432487743      -13.4811287153       -9.7635885801
 H        -2.9937329584      -12.3357647158       -8.9430834554
 H        -3.7123059980      -12.1206199852      -10.6055907873
 H        -5.3988201452      -10.9173472029      -10.0419161311
 H        -4.1680550309       -9.6273347345      -10.0531649145
 H        -6.4937744955       -8.4792014770       -6.9323782168
 H        -7.8876408700       -9.1101287579       -6.2890031757
 H        -8.5099848885       -7.1373859298       -7.9077460772
 H        -9.2588434139       -8.7223897176       -8.2190886555
 H        -8.8525732359       -6.0313685920      -12.9552718036
 H        -7.8420333298       -4.7685519318      -12.0319948605
 H        -9.4133898067       -3.3284414458      -12.4208367478
 H       -10.2281461911       -4.0957467660      -11.0452605413
 H       -14.7971298152       -4.7285585439      -14.0107363750
 H       -15.0702954329       -6.1459572080      -12.8032171739
 H       -13.6279336164       -6.0592014708      -13.8971679976
 H       -12.3072381714       -1.6444961847      -12.7380741026
 H       -11.2158040927       -2.3590279552      -11.7665758987
 H       -12.8062800536       -2.4469497296      -11.1412047410
 H       -11.8885314470       -2.7572579932      -14.8555904638
 H       -13.5365623708       -2.6806365806      -14.6131267992
 H       -12.8187902244       -4.2461017081      -15.1227336793
 H        -7.5322317077       -7.3643879268      -13.1147094326
 H        -6.5572414404       -8.6068329806      -12.1439270046
 H        -6.2139445010       -6.9016854551      -11.9169490070
 H       -10.2117821504       -8.4213414298      -10.5839792631
 H        -9.1161084678       -9.6133365726      -11.2416812065
 H        -9.6616241038       -8.2256222469      -12.2492112840
 H        -6.2575212238      -13.2528571746       -6.7533143415
 H        -4.7639180102      -13.0324287757       -7.6415722149
 H        -6.1564818312      -12.8927091601       -8.6271801571
 H        -6.5964332209      -10.9985015659       -5.2395260545
 H        -5.5209337794       -9.6863318351       -5.6045258940
 H        -4.9302391494      -11.3192083229       -5.3577973554
 H         0.9322558799      -11.6866754132      -11.7488725847
 H         0.3840563082      -10.0849835659      -11.0816623072
 H        -0.3546282390      -10.9288395007      -12.5053469205
 H        -0.3601228306      -13.7221619567      -11.6803174101
 H        -2.0419724778      -13.2019364340      -11.6719545932
 H        -1.2931571001      -13.8647406976      -10.2848949650
 H         4.5397539338       -9.3921460761       -9.1083318262
 H         5.7097173902      -10.3376537828       -8.5269290212
 H         5.2000595171       -8.8829611366       -7.7109494766
 H         3.9379153232      -12.3027114739       -6.0529282210
 H         5.2070944000      -11.1800944270       -5.9159151090
 H         5.1494061971      -12.1903950990       -7.2240866873
 H         0.4337149706       -5.7229747427       -4.1667833792
 H        -0.8556851788       -4.8214592410       -4.7194004279
 H         0.8293670996       -4.6366650096       -5.4913144158
 H        -0.8452214647       -8.3128361291       -4.7691556470
 H        -2.1608579182       -7.9085321537       -5.8810683728
 H        -1.9919087876       -6.9420706493       -4.3412566150
 H        -5.4187490478       -2.7524122299      -10.2491696594
 H        -4.8655559924       -2.5391040589       -8.5763980990
 H        -4.4692217387       -4.0785097488       -9.5683972717
 H        -2.2076397269       -1.6428398502      -11.6851188542
 H        -3.8830510826       -1.3001358483      -11.7615830560
 H        -3.1811013649       -2.9327800956      -12.0217809821
 H        -0.6466597624        3.5557340749      -10.5718613183
 H         0.0721109949        2.5934271652       -9.2656438611
 H         0.5846714217        4.2258728985       -9.3723039004
 H        -1.0180766335        2.9436784480       -6.7674466376
 H        -2.4949943909        3.9185957593       -6.8310934839
 H        -1.0359947318        4.5980494431       -6.5727524316
 H         0.6796604328       11.3570516016       -6.1918339891
 H         0.8331280206       12.3329475920       -7.5641333777
 H         1.7009677880       10.8367223437       -7.4583972849
 H        -2.0458647949       10.0017826222       -6.6070739822
 H        -2.5466556410       11.1247301691       -7.9179415767
 H        -1.5655857445       11.6902587864       -6.5435770348
 H         2.4512813824       10.1021348994      -13.4888899439
 H         2.2026050217        9.2211019139      -15.0362119182
 H         2.4826389480        8.2638467456      -13.6624235672
 H         0.0831360788        9.6756801838      -15.7279651209
 H         0.3343336537       11.0386457640      -14.7592893511
 H        -1.1290619691       10.1985312512      -14.5146554744
 H        -3.2771771187        3.3052448777      -13.1049025522
 H        -2.4716245165        2.4724377571      -14.3436936844
 H        -4.1679110429        2.9916936894      -14.6345216670
 H        -1.8501381407        5.7808197259      -16.2095464540
 H        -3.0530580565        4.5655595776      -16.7875573879
 H        -1.4272934306        4.0283034398      -16.3359633081
 H        -6.5927253304        9.3509361654      -13.3614797514
 H        -6.1077893589       10.5532653819      -12.0580590795
 H        -7.5251219919        9.4988275623      -12.0003433327
 H        -5.4298466726        8.0443542377       -9.6098090718
 H        -5.8925062401        9.5947050319      -10.0318631475
 H        -4.2290430380        9.1853809748      -10.1511477361
 Na       -3.8184697174        5.2713299736      -11.1012794104
 Na       -1.5562879144       -8.9920102181       -8.0403671558
