232

 C        -7.8430850539        6.8900573038      -12.2993231112
 C        -6.4217601577        7.0716918491      -11.8191122502
 O        -5.8414682931        6.1729214338      -11.2127201048
 C        -5.5633682512        8.5198048090      -11.8652081419
 C        -4.3057268419        8.1957925620      -12.5684982225
 O        -3.3367927055        7.5988232735      -12.0942863312
 C        -4.4179819990        8.3333292405      -14.1128217676
 C        -3.5685186544        7.2971946735      -14.8891382360
 C        -3.8033331503        5.7944211192      -14.4360847078
 O        -4.8784161632        5.3611701034      -14.0281625402
 C        -2.6319761657        4.8183558980      -14.6634622193
 C        -1.5305278902        5.0522748764      -13.6221410192
 O        -1.8642341086        5.1105487798      -12.4142451017
 C        -0.0510536927        5.0044209865      -13.9163204062
 C         0.5566138272        6.3576715341      -13.4445038756
 C         0.2642841328        7.5320555180      -14.2772973067
 O        -0.3847793298        7.3890173441      -15.2991155008
 C         0.6698814006        8.9684345285      -13.7301941989
 C         0.3124188551        9.2653493779      -12.2280851995
 O        -0.1066199856        8.3789278574      -11.5198306527
 C         0.4221185181       10.6906877798      -11.7971032603
 C         0.7058357586       10.9239914603      -10.3006844222
 C        -0.5125472379       10.5049714569       -9.4969775171
 O        -1.6038343820       10.2995106546      -10.0018248412
 C        -0.3511232025       10.5293896278       -7.9870140180
 C        -0.1083476976        8.9260139504       -7.7932180432
 O         1.0692699633        8.5399573334       -7.8835178182
 C        -1.3056784177        7.9981835477       -7.9817566902
 C        -0.8853637429        6.7211715030       -8.7444206719
 C        -2.0421053546        5.6886847771       -8.9400481892
 O        -3.2030034266        6.0717612844       -8.9908422478
 C        -1.7118026052        4.0500469618       -8.9175626354
 C        -2.8147782364        3.0322925612       -9.5596138414
 O        -3.8281220650        3.2688258247      -10.2329744204
 C        -2.5735570317        1.6274977588       -8.9851092188
 C        -2.7688152311        0.4573796106       -9.8690857467
 C        -3.1948627927       -0.8346598371       -9.1848526868
 O        -3.5806981305       -0.8728972047       -8.0178162819
 C        -3.1342987385       -2.0987209352      -10.0368062138
 C        -2.0012033438       -2.8340403361       -9.2651938633
 O        -0.8718132362       -2.4426495754       -9.4717995658
 C        -2.4036649720       -3.8464560587       -8.2016843112
 C        -1.0733943217       -4.4037164266       -7.7232591337
 C        -1.1677426947       -5.8183817827       -7.0970781710
 O        -1.9227272515       -6.6570640364       -7.5626127333
 C        -0.3724808422       -6.4118988097       -5.7262716849
 C         0.8490057079       -7.3140336883       -6.2638947551
 O         0.5887011602       -8.0292258723       -7.2006735556
 C         2.2019000683       -7.4623001199       -5.5318121466
 C         3.3067640749       -8.2273068497       -6.3591742992
 C         2.9765429172       -9.6616361550       -6.4509785387
 O         2.0931732477      -10.1631549879       -5.7970470180
 C         3.7626055789      -10.5685939176       -7.6055118952
 C         2.8603929582      -11.3221416330       -8.6606308039
 O         2.4755238561      -10.7069802420       -9.6104502203
 C         2.2917776263      -12.6961992354       -8.2225027079
 C         1.0682305049      -13.0077903428       -9.1429723739
 C         0.2624480967      -11.7714328607       -9.2521315906
 O         0.1517250348      -10.9729466713       -8.3742915671
 C        -0.7074500517      -11.7392285465      -10.5435844712
 C        -1.9379214645      -10.8914254094      -10.2406600887
 O        -1.8056411966       -9.6344444102      -10.1884099667
 C        -3.2660352070      -11.6356427775      -10.0271335762
 C        -4.4541295899      -10.7315944859       -9.5675054730
 C        -4.6011564937      -10.4502829626       -8.0102322403
 O        -3.7308018209       -9.8648600392       -7.3793746646
 C        -5.8368114842      -11.0698089843       -7.2356282876
 C        -7.1893057999      -10.4566432804       -7.7370143799
 O        -7.9489526696      -11.1755125249       -8.3423513109
 C        -7.5215453205       -9.0275254774       -7.2085244738
 C        -8.3578891636       -8.2099687222       -8.2049123273
 C        -7.6202431858       -8.2901461336       -9.5536574567
 O        -6.5760969721       -8.8886786827       -9.6760660927
 C        -8.1833732128       -7.5862729848      -10.8386504495
 C        -8.7420322285       -6.0625680938      -10.5752350118
 O        -8.9046514515       -5.5832244595       -9.5041924556
 C        -8.8905208821       -5.2266549350      -11.8853802437
 C       -10.2236103917       -4.3434930249      -11.7712092302
 C       -11.2074993123       -4.5873036070      -12.8718781144
 O       -11.0905557917       -5.6124058057      -13.5377866964
 C       -12.4863136601       -3.8110666444      -13.0407813160
 C       -13.6336329154       -4.7023714538      -12.3509770402
 O       -13.7574751080       -4.7156919656      -11.1336352715
 C       -14.6350961586       -5.3821370168      -13.3110411368
 C       -12.3646806792       -2.5351784673      -12.1785205995
 C       -12.7044440646       -3.4972043480      -14.5206290518
 C        -6.9407590394       -7.5050174854      -11.8641459768
 C        -9.2952171162       -8.5367906076      -11.2258910214
 C        -5.9170587727      -12.5536003065       -7.4653981936
 C        -5.5729898364      -10.8753890431       -5.7124476907
 C         0.1471327978      -11.1084407578      -11.6889347137
 C        -1.0338618868      -13.1406303113      -11.0186010198
 C         4.7665854529       -9.7162387247       -8.3907501821
 C         4.5884157372      -11.6759477717       -6.7958185592
 C        -0.0291433226       -5.2339546485       -4.7656897364
 C        -1.2471781227       -7.4898025224       -4.8907242475
 C        -4.6377931060       -2.6833698665       -9.7417726056
 C        -2.9301382781       -1.9877680537      -11.5632949987
 C        -0.2532862330        3.7775233479       -9.5223814586
 C        -1.6034862702        3.7479393319       -7.3548446537
 C         0.9903841026       11.2219209998       -7.6340652978
 C        -1.3833983907       11.1324604078       -7.0585178900
 C         2.1287173533        9.1879684562      -13.9715131584
 C        -0.2018597648        9.9732019724      -14.4085638470
 C        -3.0694524416        3.3458822984      -14.3189228475
 C        -2.2139555773        4.8026205419      -16.2250668603
 C        -6.4349399401        9.5892695366      -12.4215483940
 C        -5.2423089300        8.6868610396      -10.3697015041
 H        -7.7834668554        6.1052510892      -13.0552595336
 H        -8.4551318236        7.7915795665      -12.4211897748
 H        -8.3553797183        6.3818319198      -11.4660268926
 H        -3.9849746254        9.2919813960      -14.4188737130
 H        -5.4199318386        8.3576611748      -14.4570070577
 H        -2.4851985809        7.4592773879      -14.7889946158
 H        -3.6479989179        7.2386588227      -15.9846648970
 H         0.0023722417        4.9074262920      -15.0081900861
 H         0.5382603782        4.1829129485      -13.4820907912
 H         1.6762935119        6.1441841946      -13.3333167882
 H         0.1450672342        6.5906468209      -12.4432365122
 H        -0.5849985648       11.0542423450      -11.9295149354
 H         1.2118277864       11.1699161887      -12.3659624522
 H         0.8584970122       12.0167907296      -10.0907251093
 H         1.5138455005       10.3735418706       -9.9176726361
 H        -1.9883664104        8.7272951126       -8.4639407923
 H        -1.6875356482        7.7495418866       -6.9916607471
 H        -0.1026996246        6.2705885764       -8.2232123443
 H        -0.4819017953        6.9174453763       -9.7317128040
 H        -3.3016537527        1.4015771818       -8.1370011225
 H        -1.5378398672        1.6750617433       -8.5974288888
 H        -1.8019893223        0.2678295972      -10.3854881879
 H        -3.4720052903        0.7080311614      -10.6682788686
 H        -2.9789846960       -4.7344513175       -8.6319755628
 H        -2.8725768857       -3.4358374638       -7.4216646543
 H        -0.6705154994       -3.7178078174       -6.9881128025
 H        -0.4105840107       -4.5112287628       -8.6811391542
 H         1.8997552221       -8.1113821366       -4.6598293427
 H         2.5563990481       -6.4477479745       -5.2848670651
 H         4.2654643188       -8.0365841646       -5.7997614397
 H         3.4198962894       -7.6843326590       -7.2937465568
 H         1.9534243907      -12.5837399105       -7.1493594208
 H         3.0113170496      -13.3626451687       -8.4461488321
 H         0.4526057407      -13.7256507209       -8.6469065561
 H         1.3975655358      -13.4460160399      -10.0820333798
 H        -3.1308318876      -12.4143316451       -9.3076605273
 H        -3.5869978791      -12.1517130673      -11.0038575001
 H        -5.3526596944      -11.1735299400       -9.9076030156
 H        -4.4979613583       -9.7621297365      -10.0065047203
 H        -6.5765117454       -8.4943482365       -6.9311579504
 H        -8.0633860515       -9.1504048570       -6.2297654888
 H        -8.5096013263       -7.2346427424       -7.9157727437
 H        -9.3281587512       -8.6006301278       -8.3175679213
 H        -8.9836399254       -5.9376829385      -12.6148807643
 H        -8.0983090149       -4.5021374530      -12.1105708377
 H        -9.8778040420       -3.3721187063      -11.5820561021
 H       -10.8019028696       -4.6901636664      -10.8296118251
 H       -15.2286190040       -4.6161940193      -13.8520990515
 H       -15.2504936375       -5.9598872058      -12.6996927803
 H       -14.1506902312       -6.0349086494      -13.9983382570
 H       -13.3162924317       -2.0751448063      -11.8636994711
 H       -11.7762652600       -1.7351862468      -12.6435296518
 H       -11.8308401383       -2.8310979270      -11.2999205342
 H       -11.7209628780       -3.0974277979      -14.8741244630
 H       -13.3571223560       -2.7557618069      -14.8320545314
 H       -12.9033817536       -4.3190489080      -15.0905476065
 H        -7.2545410673       -7.3004243868      -12.8037812139
 H        -6.4740894783       -8.4727355215      -11.8576659648
 H        -6.2044837242       -6.7777816491      -11.6083186300
 H       -10.0188537786       -8.6949222473      -10.4391047142
 H        -8.8342527821       -9.5248469488      -11.2590456182
 H        -9.7828945678       -8.3208679780      -12.1860428355
 H        -6.6979976725      -12.9391498271       -6.8293535064
 H        -4.9953755976      -13.1067251295       -7.2968959935
 H        -6.1842191855      -12.6614010416       -8.5020017193
 H        -6.4866267955      -10.9082457999       -5.0683303071
 H        -5.2834220691       -9.8658505658       -5.5220102351
 H        -4.8065845732      -11.5941817987       -5.3240772207
 H         1.0683735956      -11.6965939615      -11.8919025608
 H         0.3503743731      -10.1279649320      -11.3728251995
 H        -0.3636707548      -11.0375357673      -12.6593345618
 H        -0.1430889883      -13.7090557761      -11.2016504711
 H        -1.5021822690      -13.2044174279      -12.0417387065
 H        -1.7351059494      -13.6716278176      -10.2867259856
 H         4.4403233664       -8.8298330568       -9.0150518582
 H         5.1349820721      -10.3732789679       -9.2277709251
 H         5.5927938625       -9.2387757821       -7.7322274311
 H         4.1997490258      -12.0065228561       -5.8533140258
 H         5.6423965743      -11.4625484717       -6.4919787783
 H         4.7291444916      -12.6142296478       -7.3247080396
 H         0.0879145036       -5.6095196189       -3.7376298648
 H        -0.7513649598       -4.4171845333       -4.7754749508
 H         0.9446993683       -4.8945948055       -5.0380283776
 H        -0.5788330836       -8.1528072200       -4.3929148173
 H        -2.0249352477       -7.9782602505       -5.4969768681
 H        -1.7769148254       -6.9396684327       -4.1633114915
 H        -5.2175455755       -1.9783515437      -10.2628567968
 H        -4.9386988264       -2.6690252709       -8.6964919090
 H        -4.6326891049       -3.6330422601      -10.2118083945
 H        -1.9191892888       -1.6512135898      -11.8835523544
 H        -3.6490606047       -1.2623631366      -12.0530632260
 H        -3.0671760304       -2.9477279758      -12.0514164569
 H        -0.2048555120        4.3456623781      -10.4157815581
 H        -0.1175601100        2.6907045959       -9.6984233373
 H         0.5061649493        4.0519412251       -8.7878305164
 H        -1.2310610842        2.7810421794       -7.0377810698
 H        -2.4644524795        3.9789860020       -6.7668794546
 H        -0.8895687713        4.4586501393       -6.8552716368
 H         1.2288812151       11.2514375557       -6.5649751493
 H         1.0566450706       12.3093647890       -7.8719407396
 H         1.8963732966       10.6526605658       -8.0971605743
 H        -1.2404864321       10.4957342609       -6.1407100613
 H        -2.3469115550       11.0766162396       -7.5971381644
 H        -1.0153920590       12.1751235652       -6.7807804397
 H         2.4582990242       10.1000055321      -13.5296750191
 H         2.3251991137        9.2030947165      -15.0193051539
 H         2.6745144154        8.3067413994      -13.6634601702
 H        -0.4512031937        9.5024459661      -15.4027859953
 H         0.3174638459       10.9095536310      -14.7267093188
 H        -1.0798650366       10.3893280689      -13.8621335012
 H        -3.6506529834        3.2839262933      -13.4336151731
 H        -2.2203020632        2.7898060318      -14.0953191797
 H        -3.6476423921        3.0527095537      -15.2158160852
 H        -2.2028387835        5.7762206943      -16.7034247512
 H        -2.7812530322        4.0360824885      -16.7133711847
 H        -1.2320441577        4.3558275959      -16.2813467942
 H        -6.7891645854        9.2546694839      -13.4191475337
 H        -5.9122958203       10.5508171559      -12.4083685082
 H        -7.3467529334        9.6721152425      -11.8073000224
 H        -5.2080361183        7.6827011305       -9.9614035641
 H        -5.9157787089        9.3102831195       -9.7234092904
 H        -4.2081385655        9.0972186888      -10.2866061951
 Na       -3.7035420516        5.5250209777      -11.1776138594
 Na       -1.4795187240       -9.2397913516       -8.0247100320
