232

 C        -7.8956311424        7.0343591520      -12.4095361568
 C        -6.5109109748        7.0615143545      -11.6282870405
 O        -6.1336181165        6.0588006328      -11.0918469710
 C        -5.6122693722        8.4033976970      -11.6946706205
 C        -4.3943446421        7.9785661528      -12.6890453753
 O        -3.3099124004        7.8621705117      -12.1278478960
 C        -4.4571624278        8.1133022465      -14.2329868469
 C        -3.6483872996        7.0718223980      -15.0884496758
 C        -3.7670025435        5.7040089900      -14.4940096058
 O        -4.7214192078        5.4798029202      -13.8069910873
 C        -2.5917216771        4.6224253259      -14.7987094801
 C        -1.4771784026        4.8439011322      -13.6985951767
 O        -1.7253326090        5.0265784320      -12.5441346279
 C         0.0820833385        5.0273969639      -14.1314887312
 C         0.7615829997        6.2646640008      -13.5186868866
 C         0.2747075330        7.4986924306      -14.2794781862
 O        -0.3425429474        7.3397755212      -15.3274904154
 C         0.5767735741        8.9738436809      -13.8031818507
 C         0.4013201166        9.2089514615      -12.2847265200
 O         0.2848951246        8.3409588412      -11.4476358373
 C         0.5756220518       10.6673282927      -11.9362676784
 C         0.8506763518       10.7835496223      -10.4173514755
 C        -0.3891356881       10.5934781606       -9.4636509672
 O        -1.5597053521       10.5071631537       -9.8146587193
 C        -0.0515501536       10.3858685467       -7.9949269982
 C         0.0920100742        8.7847525961       -7.8486238490
 O         1.0872231177        8.1483108789       -7.8704627832
 C        -1.3372471982        8.0210795280       -7.8783951243
 C        -1.1291318073        6.7500436882       -8.6272635953
 C        -2.3389714174        5.7590342386       -8.7450432281
 O        -3.4670161562        6.1313202248       -9.0012116968
 C        -1.7631014804        4.2250458406       -8.6968940073
 C        -2.7027668525        3.2271507392       -9.3793773950
 O        -3.4397529144        3.5477727298      -10.2690705094
 C        -2.5581005442        1.7574152535       -8.9338959933
 C        -2.9654398123        0.6515140542      -10.0250639488
 C        -3.4431439022       -0.6645120354       -9.3823729255
 O        -3.8772790840       -0.5700652559       -8.2475070834
 C        -3.2513181098       -2.2527971894      -10.0270013728
 C        -2.0315214611       -2.8965508664       -9.2149724708
 O        -0.8959103012       -2.6438970891       -9.5601369304
 C        -2.3898362080       -3.9539709044       -8.0339966476
 C        -1.1109389636       -4.4236605034       -7.2098268829
 C        -1.2347189606       -5.9654873085       -6.8188187601
 O        -1.9288270423       -6.7731899629       -7.4146137871
 C        -0.3504681651       -6.4293575818       -5.6032103495
 C         0.7107967249       -7.3301746978       -6.3037702339
 O         0.5853970850       -8.0636385713       -7.2653005604
 C         2.0529582148       -7.3907878230       -5.5694036790
 C         3.1474312504       -8.1883829787       -6.3918111566
 C         2.9698426184       -9.6915029856       -6.5745798119
 O         2.1927173908      -10.3937269322       -5.9119551863
 C         3.8910632029      -10.4000153556       -7.6050666039
 C         2.9399457316      -11.1965193607       -8.5325782762
 O         2.5669337148      -10.6369122912       -9.5480958735
 C         2.3926597475      -12.6093976091       -8.1830327656
 C         1.3207567026      -12.9471413273       -9.2859609803
 C         0.0948429589      -11.9390012120       -9.3494655513
 O        -0.1385094546      -11.1661983073       -8.4094265301
 C        -0.7670078765      -11.7896312612      -10.6332702161
 C        -2.0205931274      -10.9010371509      -10.3345489699
 O        -1.8801076185       -9.7350136287      -10.2106620965
 C        -3.3384757000      -11.6593701709      -10.1411037273
 C        -4.4456566685      -10.7480848938       -9.5254069776
 C        -4.4922568805      -10.4675184328       -7.9108547896
 O        -3.7185047225       -9.6570446580       -7.4079053260
 C        -5.7152979194      -11.1094414966       -7.0991135659
 C        -7.1585530297      -10.4081708437       -7.5708630076
 O        -7.8308192129      -11.0690585825       -8.3111519311
 C        -7.7376671143       -9.0807678055       -6.9511024944
 C        -8.3914355194       -8.3238365408       -8.1841475448
 C        -7.6315231272       -8.3939908609       -9.5551259890
 O        -6.5654147907       -9.0325614859       -9.6844927592
 C        -8.1289256213       -7.5618311240      -10.8042456045
 C        -8.6983794923       -6.1564198014      -10.4568523906
 O        -8.9891792673       -5.9115631152       -9.2807574547
 C        -9.0917823220       -5.2592554933      -11.7075931523
 C       -10.4173838220       -4.4933220016      -11.6592142364
 C       -11.2910991597       -4.6589524018      -12.8835738212
 O       -10.9687298680       -5.4872419596      -13.6966905516
 C       -12.6702390057       -3.7608444743      -12.9690059878
 C       -13.6890809990       -4.6937222938      -12.3361895783
 O       -13.5118744321       -4.9058560851      -11.1715509688
 C       -14.8289503582       -5.3563729349      -13.2150749473
 C       -12.7657659300       -2.3547650135      -12.3549584059
 C       -12.8388040363       -3.5108770153      -14.4562920135
 C        -7.0857735543       -7.4775126549      -11.8666784527
 C        -9.3498692674       -8.2441729908      -11.5077396892
 C        -5.8285760464      -12.6455993897       -7.3814200111
 C        -5.4533158739      -10.8913025676       -5.6127417374
 C         0.1404265653      -10.9914063299      -11.6511122552
 C        -1.0767848093      -13.2501807596      -11.1688008209
 C         4.7970602413       -9.5480107634       -8.5567594129
 C         4.7239705165      -11.3801407431       -6.7349999291
 C         0.2853187214       -5.3276856125       -4.7954515319
 C        -1.2659900607       -7.3257384249       -4.6713185391
 C        -4.6057884695       -2.9735731437      -10.1629043142
 C        -2.6836870303       -1.9703438999      -11.4207825321
 C        -0.4817710475        4.1500391620       -9.7178998746
 C        -1.6174567843        4.0545505957       -7.1333504751
 C         1.2363529334       11.0136077362       -7.5135632398
 C        -1.2970617121       10.9845188189       -7.1583836557
 C         2.1542341354        9.0756695380      -14.0893545709
 C        -0.1466525332        9.9259115938      -14.7280554322
 C        -3.2389931381        3.2807652727      -14.5806685441
 C        -2.0029085061        4.8015256275      -16.1511307160
 C        -6.2902424083        9.6757139133      -12.3522795394
 C        -5.1075262675        8.8956321717      -10.3449565238
 H        -7.7893126079        6.3520669308      -13.2272341951
 H        -8.1115909518        8.0567691687      -12.7181834642
 H        -8.7854936070        6.8492219979      -11.8535902715
 H        -3.9908284423        9.0353391908      -14.5632175850
 H        -5.5186588321        8.2243617327      -14.5985640817
 H        -2.5609010736        7.2604082876      -15.0754704033
 H        -3.9555993462        7.0936009328      -16.1564801238
 H         0.2678127747        4.7354377015      -15.1818446133
 H         0.4747703161        4.1809458417      -13.5404587207
 H         1.8318695741        6.2239316274      -13.5751796009
 H         0.4163308466        6.3185414798      -12.4595757330
 H        -0.3033909991       11.2537025144      -12.2416228467
 H         1.5125885444       10.9808701638      -12.3515121338
 H         1.1151444063       11.8142981052      -10.3310354678
 H         1.7379714787       10.2194889575      -10.0181229732
 H        -2.0802563395        8.6814508254       -8.3335842249
 H        -1.6401688435        7.7935423524       -6.8283270713
 H        -0.2699582570        6.1817961115       -8.1489439123
 H        -0.8005991746        6.8910863317       -9.6726822837
 H        -3.3903613047        1.7354896043       -8.2471412082
 H        -1.6490943109        1.5801009647       -8.4010077065
 H        -2.2472386962        0.6172008913      -10.8486679743
 H        -3.8625820771        0.9999907932      -10.5669368830
 H        -2.8183222717       -4.8054406248       -8.5870338123
 H        -3.1296818549       -3.3917948923       -7.2694411680
 H        -1.1284776548       -3.7891129765       -6.3026958667
 H        -0.2465052557       -4.3108696901       -7.7903635193
 H         1.7607618102       -7.9368984494       -4.6781370340
 H         2.4797351724       -6.3946091532       -5.3946282983
 H         4.0584874702       -7.8291673090       -5.9708474713
 H         3.1773344137       -7.6990880444       -7.3653063514
 H         1.8520908571      -12.3492730810       -7.3031509516
 H         3.2128514915      -13.4711469965       -8.2226045641
 H         1.1398698868      -14.0652703238       -9.2564934029
 H         1.8698773947      -12.7468175050      -10.2418006188
 H        -3.1843039899      -12.5989253572       -9.5087578369
 H        -3.6076933022      -12.0881594753      -11.0638781261
 H        -5.4550304799      -11.0048257288       -9.9444957382
 H        -4.3170094737       -9.6847334932       -9.8407767497
 H        -6.9740297205       -8.5182362658       -6.4272799551
 H        -8.5325547654       -9.3271357212       -6.2658980553
 H        -8.4739012412       -7.2197564509       -7.7997238522
 H        -9.4756432777       -8.6525996436       -8.3731836753
 H        -9.0387653795       -5.9164684180      -12.6716894945
 H        -8.3056344653       -4.5069974882      -11.6992480600
 H       -10.1823825730       -3.4072742850      -11.4820792318
 H       -10.8785067339       -4.8499152884      -10.7937450185
 H       -15.3573899001       -4.5163595519      -13.6400059235
 H       -15.5460434827       -5.9561978840      -12.5761174268
 H       -14.3752103417       -5.9727641492      -13.9984649930
 H       -13.7239371788       -2.1916312397      -11.7967036194
 H       -12.5608370886       -1.5841913381      -13.1333367781
 H       -12.0485873895       -2.1684423134      -11.5562651962
 H       -12.3995347275       -2.6307988291      -14.8959241730
 H       -13.9283119650       -3.4781829204      -14.7623329255
 H       -12.4591439054       -4.4072344743      -15.0790841551
 H        -7.4412398932       -7.0020570781      -12.8409171482
 H        -6.7895193421       -8.5417986280      -12.0754717828
 H        -6.2134840794       -6.9014280708      -11.5431616218
 H       -10.1239027584       -8.4164962368      -10.8112498186
 H        -9.1210459356       -9.2070604380      -11.9072348285
 H        -9.6783966723       -7.6583301769      -12.3887723255
 H        -6.8156434642      -12.9707519695       -7.0402184215
 H        -5.0594734934      -13.1913544320       -6.8170202679
 H        -5.7362730046      -12.8843951657       -8.4430838262
 H        -6.1802962636      -11.4016764744       -5.0488749406
 H        -5.6550308344       -9.8536256053       -5.2817503976
 H        -4.4597309861      -11.2084070627       -5.3506433937
 H         1.0866315524      -11.5130313161      -11.7591468398
 H         0.2699313683       -9.8842312217      -11.3904347690
 H        -0.3627468829      -10.9826772310      -12.6243893473
 H        -0.2284548555      -13.7619551633      -11.6061216697
 H        -1.7272237799      -13.1949093091      -12.0409355131
 H        -1.6756988136      -13.7847872501      -10.4461424416
 H         4.2152835500       -8.7959807924       -9.1198086559
 H         5.1922056944      -10.1448467653       -9.3627203059
 H         5.5442156978       -8.9625199094       -8.0963349113
 H         4.0964252612      -12.1516850538       -6.2331020369
 H         5.1977828595      -10.9687423742       -5.8760138497
 H         5.5402336080      -11.9505708243       -7.1945292689
 H         1.0920076843       -5.6870495042       -4.1429228790
 H        -0.5319373774       -4.8021744575       -4.2820291724
 H         0.7489824880       -4.5783619047       -5.4969865965
 H        -0.7196616921       -7.3837098149       -3.6533667532
 H        -1.3587966980       -8.2952391058       -5.1845743085
 H        -2.3769784477       -7.0056684763       -4.5286009212
 H        -5.3788777413       -2.1406518036      -10.2463121767
 H        -4.7479046513       -3.5074956885       -9.1951087322
 H        -4.4582506491       -3.7140549022      -10.9563912796
 H        -1.6660087751       -1.5396604650      -11.3884347039
 H        -3.2425995182       -1.2193691790      -11.9221720010
 H        -2.7383392542       -2.8271819877      -12.1249998595
 H        -0.6705506775        4.8712010210      -10.5540197291
 H        -0.3587839819        3.1198426873      -10.0078811475
 H         0.3730330801        4.4406359484       -9.1098670002
 H        -1.0083312541        3.2147151059       -6.8408161357
 H        -2.5699080150        3.9423345934       -6.5593868279
 H        -1.1717407674        4.9013370720       -6.6853851497
 H         1.2067120734       10.8581906355       -6.4443197504
 H         1.3464833527       12.0887335790       -7.6055858025
 H         2.1493992180       10.6026125439       -7.8499888006
 H        -0.9893022630       11.3849287864       -6.2281267631
 H        -1.9013795113       10.1258309936       -7.1307081800
 H        -1.7395115793       11.7397434745       -7.7097213297
 H         2.3438601759       10.1304882387      -14.2751100885
 H         2.2481800555        8.5488741233      -15.0765271174
 H         2.8765952061        8.6174331239      -13.4281714273
 H         0.1648092676        9.8255413033      -15.7401182631
 H         0.0001572348       10.9428030237      -14.4452697341
 H        -1.2192104281        9.8376759721      -14.6646890165
 H        -3.6233530357        3.1534834401      -13.4950187575
 H        -2.3625937215        2.5455354609      -14.6722565921
 H        -4.0484737099        3.1858370941      -15.3020956535
 H        -1.1464578236        5.5049540521      -16.1152091199
 H        -2.8045059707        5.0472543237      -16.8272522637
 H        -1.6311336056        3.8418339921      -16.5472566310
 H        -7.0976547399        9.5246567327      -13.0633649154
 H        -5.4535021786       10.1669904399      -12.8791994942
 H        -6.6092067175       10.3841720046      -11.5942536272
 H        -4.2115359730        8.3655388563       -9.9057379994
 H        -5.9186070605        8.8190625451       -9.6187561238
 H        -4.9135864694        9.9313743660      -10.4815077980
 Na       -3.7598336634        5.6171335571      -11.3054545153
 Na       -1.4218708800       -9.0420998432       -7.8225981081
