232

 C        -7.8816647837        7.0826378731      -12.3606504475
 C        -6.5155227077        7.1669661248      -11.6995439963
 O        -6.1816945600        6.1514888280      -11.0851617904
 C        -5.5665755417        8.4653320991      -11.7974289264
 C        -4.3385501087        8.1162042750      -12.7406326972
 O        -3.2436340393        7.7660729262      -12.2720299017
 C        -4.5809473135        8.0709223805      -14.2749194262
 C        -3.5579426474        7.1347887336      -15.0689949146
 C        -3.6555626821        5.6806951718      -14.3658511137
 O        -4.5524170582        5.3765749386      -13.5844689365
 C        -2.5563623290        4.6916939130      -14.8332609136
 C        -1.3784833378        4.9094540349      -13.7193998976
 O        -1.7276404558        4.9880914742      -12.5129276767
 C         0.1141594764        4.9107526718      -14.0705929093
 C         0.7394437627        6.1897207622      -13.5615651629
 C         0.2204095278        7.3922370928      -14.3590424023
 O        -0.4716915652        7.3031169661      -15.3755399955
 C         0.6267820506        8.8989346395      -13.9495467135
 C         0.5129549027        9.2440532598      -12.3511803250
 O         0.4702716463        8.3066572950      -11.5660126670
 C         0.5302264952       10.7563881137      -11.8653528669
 C         0.9472829545       10.8860789484      -10.3594727530
 C        -0.2735777314       10.5139902848       -9.4305088946
 O        -1.3684897871       10.7181923851       -9.9779081776
 C        -0.0388364816       10.1841477828       -7.8305429833
 C        -0.0351231426        8.7116520515       -7.7670556051
 O         1.0833472547        8.1680026126       -7.8417356887
 C        -1.3504791670        8.0347536381       -7.8550381550
 C        -1.1632040035        6.8103325437       -8.6501177425
 C        -2.3073945022        5.8003165774       -8.7803242800
 O        -3.4936070359        6.1349768827       -8.8999344747
 C        -1.8113692875        4.3395324418       -8.6149356226
 C        -2.7706170082        3.1821669417       -9.3398340281
 O        -3.3082014634        3.5289440171      -10.3732821161
 C        -2.7308209245        1.6901436945       -8.9499840462
 C        -3.1593617010        0.7152369860      -10.0804268616
 C        -3.4260808329       -0.6334737782       -9.3225973663
 O        -4.0967661827       -0.5472948993       -8.3101488108
 C        -3.1522548473       -2.0581973149       -9.9597835000
 C        -2.0533397458       -2.9332348293       -9.1796172049
 O        -0.8850260009       -2.8614520961       -9.4144621550
 C        -2.4965234551       -4.0056702981       -8.0661042505
 C        -1.3326359525       -4.3559121150       -7.1230118718
 C        -1.2693704666       -5.8587016050       -6.7570082446
 O        -1.9909757549       -6.6503505531       -7.3954715083
 C        -0.3399782569       -6.4892477467       -5.5965716228
 C         0.7478914131       -7.4704293149       -6.2206130690
 O         0.6048033533       -8.0364316870       -7.2695109925
 C         2.2022861260       -7.4594180550       -5.5365594624
 C         3.1344180870       -8.1747612930       -6.4926129198
 C         2.9597440337       -9.6748930036       -6.6253647389
 O         2.2096318975      -10.3451424395       -5.9186597091
 C         3.9455417745      -10.3691334347       -7.6331129225
 C         3.0084862008      -11.0912770200       -8.5862894276
 O         2.5968616109      -10.6061034970       -9.5879230790
 C         2.3088598765      -12.4564117421       -8.1998283430
 C         1.2600808224      -12.8699094837       -9.2650135942
 C         0.1180897747      -11.8826267146       -9.3597575037
 O        -0.2912348034      -11.3741828496       -8.3597484299
 C        -0.7568126426      -11.8178685126      -10.7279180818
 C        -2.0298094615      -11.0149268996      -10.2817085824
 O        -1.9704001001       -9.8170388066      -10.1149944093
 C        -3.3792698381      -11.6587697915       -9.9789823532
 C        -4.4212209729      -10.6526425064       -9.5320723646
 C        -4.5274153423      -10.3899330107       -8.0482750377
 O        -3.6783037340       -9.8006958659       -7.4095621950
 C        -5.6544489646      -11.0844059365       -7.0934909213
 C        -7.0593208314      -10.5343749890       -7.5959892673
 O        -7.7837713291      -11.1853736972       -8.2959155402
 C        -7.5448997769       -9.1710040940       -7.0974492045
 C        -8.4172721030       -8.3829050565       -8.1749344794
 C        -7.7498134273       -8.3262320390       -9.5353648538
 O        -6.6609938730       -8.8787378960       -9.6766299482
 C        -8.2193244571       -7.5739558418      -10.8509873535
 C        -8.8324713072       -6.1462249964      -10.4516998648
 O        -9.0654552401       -5.8305639601       -9.3276290795
 C        -9.1339399125       -5.2027836464      -11.5688153899
 C       -10.4971065208       -4.4716505935      -11.4008421869
 C       -11.2527957765       -4.4587785943      -12.8415731084
 O       -10.9558784512       -5.3219657490      -13.6482614597
 C       -12.6313506709       -3.7759833879      -13.1242206597
 C       -13.6071019758       -4.7680025849      -12.3238055473
 O       -13.5545078596       -5.0928004946      -11.1215258715
 C       -14.8785566058       -5.2981121750      -13.1126137810
 C       -12.7215633897       -2.4367745210      -12.3771299982
 C       -13.0739916031       -3.5811325852      -14.6617411340
 C        -6.9553899179       -7.5082013042      -11.8603636203
 C        -9.4344316504       -8.3829476758      -11.4662210981
 C        -5.7048415049      -12.5414408079       -7.2858245141
 C        -5.4696695339      -10.8470003661       -5.5867780800
 C         0.1218439229      -10.9882757112      -11.6535796046
 C        -1.1516362643      -13.1977212783      -11.2865378255
 C         4.8571520843       -9.3997073072       -8.4398907128
 C         4.9193135492      -11.2897956128       -6.7279000927
 C         0.3407223074       -5.3660434143       -4.8289919948
 C        -1.2775767056       -7.2822126002       -4.6012979506
 C        -4.4181808780       -2.9785970766      -10.1701382948
 C        -2.6081229769       -1.8947090145      -11.5271089529
 C        -0.5539217001        4.2977264732       -9.5105131717
 C        -1.4633256166        4.0990103362       -7.1486227417
 C         1.2749940897       10.8334641441       -7.3560694890
 C        -1.1719526320       10.9466512703       -7.0418527859
 C         2.1757892709        8.9915374648      -14.2164388602
 C        -0.0662603669        9.8156117172      -14.8772543224
 C        -3.2504581621        3.1792558030      -14.6585812519
 C        -2.0789653620        4.8127772552      -16.3355518658
 C        -6.2748548918        9.6562662574      -12.3787031737
 C        -5.0989447790        8.8096254525      -10.3916504892
 H        -7.8417148943        6.4107055823      -13.2151353335
 H        -8.3309798740        8.0709664060      -12.5809108815
 H        -8.6047800294        6.7636030117      -11.6249579199
 H        -4.5129514975        9.0471176316      -14.7727998778
 H        -5.6462766184        7.7673357283      -14.5212978962
 H        -2.4825240229        7.4560559545      -15.0639594182
 H        -3.8949909695        7.0737584155      -16.1115648517
 H         0.1734993323        4.8500532470      -15.1513460455
 H         0.4990925951        3.9824236793      -13.7021670603
 H         1.7499674329        6.2191912776      -13.8516928239
 H         0.6804557500        6.4403529328      -12.4582053646
 H        -0.5753286611       11.0385761111      -12.0222598394
 H         1.2470466100       11.3524258193      -12.4092184844
 H         1.3251083544       11.8998792234      -10.2115076183
 H         1.8091813880       10.1988162415      -10.0769185489
 H        -2.0286962879        8.7339180922       -8.3652883860
 H        -1.6809944725        7.8952000212       -6.8471806440
 H        -0.3340770020        6.2561705111       -8.2351332889
 H        -0.8240509587        7.0765058450       -9.7232723025
 H        -3.4140842973        1.6693310355       -8.1046575047
 H        -1.7909618729        1.4283254181       -8.6465451097
 H        -2.2506691897        0.7286942406      -10.7363404925
 H        -3.9377834142        0.9590763864      -10.8010511137
 H        -2.8002305238       -4.8957431679       -8.6778053053
 H        -3.2286363504       -3.5688098842       -7.5342009607
 H        -1.4300409179       -3.7317626409       -6.2766868562
 H        -0.4287877946       -4.1664471616       -7.6758868230
 H         2.2257620768       -7.9285865157       -4.5593004414
 H         2.5486575159       -6.4674138378       -5.5421488112
 H         4.1134793798       -7.7572859625       -6.1940924088
 H         3.0349478575       -7.6644355551       -7.4477823754
 H         1.7364195224      -12.2292962899       -7.3206833038
 H         3.0219469904      -13.2254382042       -8.2078768338
 H         0.9402451880      -13.8403878545       -8.9767959284
 H         1.8280612831      -12.9846956127      -10.2469838281
 H        -3.3078483467      -12.4813680525       -9.3045953437
 H        -3.7576916822      -12.2162107798      -10.9409804151
 H        -5.4266256368      -10.9588457052       -9.9068992153
 H        -4.2799716165       -9.6533097030      -10.0335134660
 H        -6.6517746045       -8.6316892871       -6.7749438014
 H        -8.2079253882       -9.3662690512       -6.2705900630
 H        -8.6705168544       -7.3911253918       -7.7336983658
 H        -9.4018488287       -8.9109681935       -8.3360368874
 H        -9.3052312926       -5.7813532717      -12.5057449555
 H        -8.1922406533       -4.5504525702      -11.5945561446
 H       -10.4936698095       -3.5137838816      -10.9357591670
 H       -11.0179753883       -5.2118030155      -10.7064484142
 H       -15.6146915669       -4.5293107303      -13.5259588060
 H       -15.3914336602       -5.9665709950      -12.4014649691
 H       -14.4492198356       -5.9289425930      -13.8811971030
 H       -13.7668148620       -2.3798253979      -11.9662811280
 H       -12.3962714902       -1.5307398402      -12.9212966204
 H       -12.2361628034       -2.4608189124      -11.4689216481
 H       -12.5649627671       -2.6706998023      -15.1927643522
 H       -14.1364148856       -3.3994021212      -14.7007083163
 H       -12.9340547377       -4.3949445116      -15.3655423903
 H        -7.1546542038       -6.9344891480      -12.7594130339
 H        -6.5424776035       -8.5613823536      -12.1403693053
 H        -6.1830670192       -6.9249586049      -11.2964235404
 H       -10.1826553838       -8.4987342048      -10.7172990335
 H        -9.1773146481       -9.3829168330      -11.8355454163
 H        -9.8399613823       -7.8692647882      -12.4055180889
 H        -6.6202158933      -12.8869290326       -6.8442230861
 H        -4.8257149592      -12.9891859660       -6.7106551973
 H        -5.6929456523      -12.8896458877       -8.3156603325
 H        -6.1194325885      -11.4974189262       -5.0554121083
 H        -5.7366600778       -9.8829100305       -5.2345295213
 H        -4.4136436720      -11.0512624095       -5.3331309285
 H         1.1298043692      -11.4714020207      -11.7193901976
 H         0.2111870217       -9.9931231245      -11.2086104292
 H        -0.3039202416      -10.8008479784      -12.6316109507
 H        -0.4501935694      -13.5260169796      -11.9142391599
 H        -2.0265817988      -13.0827275345      -11.9430422744
 H        -1.5026840873      -13.8662131148      -10.5177763697
 H         4.4232759641       -8.7651946059       -9.1831257397
 H         5.7073083860       -9.8782827664       -8.9064224133
 H         5.2637716372       -8.7828556812       -7.6974912847
 H         4.4749937528      -12.1906002000       -6.3851630976
 H         5.2734097942      -10.8848249181       -5.8046557448
 H         5.8262748715      -11.6168196576       -7.2019400930
 H         1.0703699461       -5.7665132632       -4.0751762335
 H        -0.4642123587       -4.7703050174       -4.4498572152
 H         0.8912778070       -4.6792709415       -5.5096092262
 H        -0.7554069045       -7.1158477705       -3.6330657853
 H        -1.3789388453       -8.3394123114       -4.8832781924
 H        -2.3163405835       -6.9301707445       -4.5445637854
 H        -5.1870034707       -2.3240725896      -10.5579308987
 H        -4.7182367723       -3.4371782082       -9.1881935421
 H        -4.0322039718       -3.7345571416      -10.7674550549
 H        -1.6666243191       -1.3243057419      -11.6860580713
 H        -3.2701573234       -1.4308090718      -12.2084049940
 H        -2.5327947254       -2.8622662041      -11.9256287877
 H        -0.7602182956        4.7031473675      -10.4726886638
 H        -0.2321240669        3.2371158952       -9.4822602942
 H         0.2095291513        4.8453424744       -8.9644973233
 H        -0.7796829215        3.2951236400       -7.0468861869
 H        -2.3247248319        3.8022721371       -6.5142694496
 H        -1.0352526580        4.9716576063       -6.6135505003
 H         1.3681845804       10.8120684931       -6.3305188973
 H         1.3391695093       11.8928463863       -7.6376203728
 H         2.2310027001       10.4561022243       -7.7768188144
 H        -0.6887520071       11.5557805555       -6.3007580094
 H        -1.7720432224       10.2221811078       -6.6077809589
 H        -1.7027435988       11.6277649386       -7.6428857234
 H         2.3567105901       10.0314941138      -14.3849694705
 H         2.5570561516        8.3714781843      -15.0985909137
 H         2.7590219742        8.6776059587      -13.3220426133
 H         0.3328902878        9.8597870196      -15.8833564863
 H        -0.0907356460       10.7962196284      -14.4927105200
 H        -1.0846202268        9.5750417161      -15.0000488906
 H        -3.6142016319        2.9270376287      -13.6511611847
 H        -2.5722098788        2.4272907433      -15.0114215366
 H        -4.1457244521        3.2914995566      -15.3258013770
 H        -1.1627110014        5.4703113444      -16.4685848516
 H        -2.9007505681        5.0347161853      -16.9387636328
 H        -1.7526373834        3.7867864976      -16.6364618861
 H        -6.8481335424        9.5561500346      -13.3039096357
 H        -5.5531116908       10.4547722671      -12.5242409816
 H        -6.9341757188        9.9673485994      -11.5770965165
 H        -4.2774976215        8.1635092320      -10.1351827614
 H        -5.8749113574        8.5330154100       -9.7097983744
 H        -4.8862546082        9.8250531231      -10.2800097001
 Na       -3.9072755440        5.6137570543      -11.4073492348
 Na       -1.5560946985       -9.0609047320       -7.8857044507
