232

 C       -16.3097165609      -13.6306553009       -0.4947390383
 C       -15.8766753943      -13.9564502753       -1.8909696458
 O       -16.0119654371      -12.9828004403       -2.6652884251
 C       -15.3701931312      -15.3401330034       -2.3337278363
 C       -14.8156944062      -15.3011731220       -3.8297760684
 O       -15.5734119954      -15.1199463138       -4.7627197364
 C       -13.3266068781      -15.7002483852       -4.3117351676
 C       -13.2625153659      -15.6217906656       -5.8631796527
 C       -13.7935361854      -14.2173341193       -6.2691074027
 O       -13.4891613698      -13.2852804080       -5.5666746074
 C       -14.5326303574      -14.0123751735       -7.6434555786
 C       -15.3025432910      -12.6583524190       -7.6008523232
 O       -16.4663797242      -12.7791846163       -7.1653749712
 C       -14.5921728272      -11.3893066036       -8.0802082597
 C       -15.4819493038      -10.1276113504       -7.8008446360
 C       -15.4110186074       -9.5717204663       -6.3344941278
 O       -15.3867863532      -10.2635610174       -5.3413071769
 C       -15.6011932117       -8.0640664061       -6.1151128188
 C       -14.0394161803       -7.5936104382       -5.8295788433
 O       -13.1865288561       -8.4172349701       -5.8529450217
 C       -13.9413193198       -6.0414787432       -5.4013318473
 C       -13.4726759572       -5.3248237146       -6.7297072125
 C       -13.1757705136       -3.7984141066       -6.5073273319
 O       -13.5084039832       -3.3750108335       -5.3995273514
 C       -12.4275798359       -2.9062358053       -7.5716509778
 C       -10.8352455435       -3.1015165608       -7.2818508026
 O       -10.3483598301       -4.2289155756       -7.0909589729
 C        -9.8513464408       -1.8862992066       -7.3282249839
 C        -9.8367914493       -1.0443947792       -6.0661833842
 C       -10.0498028920        0.4164137880       -6.3547703242
 O       -10.2298572970        0.8213354258       -7.5532976782
 C        -9.4454926768        1.4994673554       -5.4590086976
 C        -8.0169137779        1.7131821367       -6.1279189906
 O        -7.0740347932        1.2318358905       -5.5406274843
 C        -7.8532227402        2.6536677340       -7.3176214832
 C        -6.5126317879        2.3775724439       -8.0143099392
 C        -5.7929233044        3.6506634566       -8.5155274088
 O        -5.2762820341        4.4036836653       -7.6694434885
 C        -5.5632118593        3.7234739135      -10.0200811563
 C        -4.5415910512        2.4572814328      -10.2481236057
 O        -5.0029845266        1.3759030455      -10.5119888576
 C        -3.0304376366        2.7670219672      -10.3702600907
 C        -2.1711898458        1.8042562125       -9.5650791069
 C        -0.7028926470        1.9884155047       -9.8921739077
 O        -0.4986177492        2.7528668956      -10.8912937850
 C         0.4790290016        1.4879397050       -8.8212738053
 C         1.9136657451        1.8445761816       -9.2425566364
 O         2.6318614876        1.0522296435       -9.8583273238
 C         2.5095423138        3.2255863892       -8.9789692999
 C         3.1619591149        3.8073930327      -10.2309565592
 C         2.7707602924        5.2230994142      -10.6843934743
 O         1.6182075713        5.6326505738      -10.4835994745
 C         3.6401150469        6.0666777694      -11.7194601620
 C         3.8910828744        5.0746262865      -12.9136488164
 O         4.8152953524        4.2678454201      -12.8759875059
 C         2.7724981611        4.9284212492      -14.0308731254
 C         2.9479970144        5.6526101024      -15.3327848414
 C         3.5465824093        4.6645125828      -16.3575960566
 O         3.9007375869        3.5160847929      -16.1360609159
 C         3.5994985532        5.0924268882      -17.8171961513
 C         5.0765527921        5.2132405671      -18.2823447077
 O         5.5823194973        4.3260793466      -18.8942427504
 C         5.9380984943        6.5718096315      -17.8218583947
 C         7.4893377566        6.1219038548      -17.6631558979
 C         7.6050336881        4.8076531176      -16.8924852148
 O         6.8376747229        4.4440309436      -16.0436934495
 C         8.8532428608        3.8360703752      -17.3726225531
 C        10.0134423111        3.9911277946      -16.3734604277
 O         9.8514030126        4.5686885643      -15.3251294474
 C        11.3574776968        3.4351796457      -16.6496662770
 C        12.1325508463        3.1303199721      -15.3412594621
 C        11.5913553596        1.8080995633      -14.6269777904
 O        10.7814778216        1.1274271638      -15.2138472869
 C        12.0817377052        1.5463053159      -13.1413970016
 C        10.9328325155        0.6623425606      -12.3815730444
 O        11.1946409426       -0.3653759303      -11.8500995272
 C         9.5767405999        1.2194071499      -12.4983717571
 C         8.6001811502        0.1717965023      -13.1067660117
 C         7.3010282625        0.8134519028      -13.4416157040
 O         7.2455044997        2.0191180203      -13.4763548072
 C         6.0128644788       -0.2923397447      -13.5703339451
 C         5.3826470326       -0.0139512372      -15.0362062897
 O         4.7922043525        1.0374386124      -15.2299790642
 C         5.4005981774       -1.1175454634      -16.0364094241
 C         6.4092277945       -1.6950196879      -13.1481684979
 C         4.9781881431        0.2192122248      -12.4800955690
 C        13.4138574162        0.8181703369      -13.1313218302
 C        12.1499130416        2.7562658295      -12.2771854311
 C         8.3481891548        2.2958955686      -17.4455687277
 C         9.5089463286        4.1210291148      -18.7151156640
 C         2.8994252557        3.8937506235      -18.7043847277
 C         3.0116785147        6.4521223611      -18.2188310030
 C         3.0430416216        7.4477984731      -12.2609112428
 C         4.9716931406        6.4876726536      -11.0663418514
 C         0.1250610786        2.1789005020       -7.4128755193
 C         0.3229242852       -0.0594814191       -8.6653873486
 C        -6.8276509537        3.3979884534      -10.8461807186
 C        -4.7920723729        5.1319867971      -10.4296188057
 C       -10.2924033939        2.8314695459       -5.5105737600
 C        -9.2833233300        1.1195867488       -3.9734521411
 C       -12.8002543367       -3.3669220994       -8.9950148801
 C       -12.8555641409       -1.4142399753       -7.3412194188
 C       -16.2342584010       -7.4115545114       -7.3256107398
 C       -16.5261580473       -7.7104761225       -4.8512581661
 C       -13.3604720015      -14.1595498882       -8.7347606793
 C       -15.6376674009      -15.1316565675       -7.9856261554
 C       -14.3584691779      -15.9549397867       -1.3306796352
 C       -16.5760220530      -16.2970488792       -2.4197607218
 H       -16.7362106108      -12.6024294396       -0.6472603152
 H       -15.5405641644      -13.5721673578        0.2592076437
 H       -17.0596996273      -14.3338202953       -0.1890836153
 H       -13.0568684167      -16.6862516874       -3.9711261360
 H       -12.5338100112      -15.0304096965       -3.8381711763
 H       -13.8957009308      -16.2999327815       -6.4133351391
 H       -12.2689865131      -15.6852516915       -6.3236768911
 H       -14.5955402077      -11.4179740155       -9.1677195082
 H       -13.5683588937      -11.3263802507       -7.6597146573
 H       -16.4515194552      -10.5234582851       -7.9804903845
 H       -15.2585334089       -9.3549863077       -8.4824529797
 H       -13.1398356108       -5.8315706160       -4.7072100095
 H       -14.8007929328       -5.5801050406       -5.0050063271
 H       -14.3018695600       -5.4552321688       -7.4786421578
 H       -12.5290618929       -5.7030896252       -7.0900303928
 H       -10.2244679065       -1.3158421304       -8.2049844029
 H        -8.9094460824       -2.3566414390       -7.4555030148
 H        -8.9504479925       -1.1647697983       -5.4283397210
 H       -10.5898405245       -1.4543986360       -5.3915809807
 H        -7.8730515862        3.6113470962       -6.8142394856
 H        -8.8357686392        2.5917903765       -7.8805408810
 H        -6.5952183011        1.6273111328       -8.7636495264
 H        -5.9305669070        2.0733652064       -7.1856505222
 H        -2.7313538917        3.7859848672       -9.9816554342
 H        -2.7277612973        2.7323331764      -11.3903902835
 H        -2.3849780323        0.7456665178       -9.6933035451
 H        -2.4374848732        2.0392381628       -8.5794967496
 H         3.2407750144        2.9580207486       -8.2109019049
 H         1.7639324585        3.8618299840       -8.5301305677
 H         2.8210987973        3.2198803541      -11.1761627335
 H         4.2288011192        3.6699540474      -10.1830742156
 H         1.7601239943        5.0753665763      -13.6362015745
 H         2.7857595195        3.8412499447      -14.2830060941
 H         3.4696434973        6.6325632369      -15.1218865075
 H         1.9261874974        5.9674587924      -15.7362275892
 H         5.6792619407        6.9611509791      -16.8393408272
 H         5.9186309883        7.4459297913      -18.5351998962
 H         8.0377346115        6.8603997647      -17.1071330409
 H         8.0047493069        5.9480732032      -18.7243724192
 H        11.9679241763        4.1303751938      -17.1763070887
 H        11.3471747399        2.5857031463      -17.3425530162
 H        11.9067336598        4.0096032173      -14.7314461462
 H        13.2305531849        3.1566181602      -15.5937332360
 H         9.5593536836        2.0509959936      -13.1368008125
 H         9.2231473044        1.4893438930      -11.4911284829
 H         8.4576040047       -0.5477742104      -12.2818856302
 H         9.0089230653       -0.2595387132      -13.9923667403
 H         6.3863308047       -1.5564021765      -16.1411493258
 H         5.0815888433       -0.5875501580      -16.9321461102
 H         4.6206338462       -1.9724788791      -15.9079642886
 H         5.5180942267       -2.3366787707      -12.9827090191
 H         6.7467228489       -1.6316360063      -12.1353063089
 H         7.1399017349       -2.2375709386      -13.7384007077
 H         5.4176828608        0.2359932411      -11.4995199478
 H         4.0949526698       -0.3581657165      -12.3998317753
 H         4.4676147135        1.2252759164      -12.6894932388
 H        14.2341440155        1.2543029143      -13.6885390741
 H        13.3602915163       -0.1858376758      -13.6308804124
 H        13.7010822677        0.5741285464      -12.0924262400
 H        13.0403433671        3.3761431029      -12.5082357693
 H        12.0207279059        2.4940961718      -11.2156676338
 H        11.2313924072        3.3820778937      -12.4240170241
 H         7.6377142703        2.0184670229      -16.6981853535
 H         9.2697890771        1.8588247180      -17.4272416000
 H         7.8649875634        2.2665385530      -18.3878852736
 H        10.2064664999        4.9418039510      -18.6934479567
 H         8.6984632701        4.3646456677      -19.4039760468
 H         9.9341313022        3.1894681304      -19.0469827715
 H         2.0120322117        3.4181873990      -18.2866175533
 H         3.5298075849        3.0762990160      -18.7928150969
 H         2.4623720516        4.3865929959      -19.5881046632
 H         3.4099647112        6.5948612416      -19.2254995805
 H         3.1881190788        7.3243279655      -17.5104300152
 H         1.8939392977        6.3574458257      -18.4253221128
 H         2.9027577354        7.9614295135      -11.3637875602
 H         2.0937720629        7.2753633380      -12.7116755594
 H         3.7879660290        8.0274072380      -12.8927712050
 H         5.4527485954        7.3465271259      -11.6672545931
 H         5.7616422928        5.6923781167      -11.0378203118
 H         4.8209965105        6.7841703299      -10.0581202724
 H        -0.9105076303        2.4974916858       -7.5626555044
 H         0.7657415441        3.0825892870       -7.3546862172
 H         0.1046799690        1.5544932484       -6.5055213815
 H        -0.7437414665       -0.3172772804       -8.7589874682
 H         0.7616827861       -0.5553537765       -7.7929759426
 H         0.8607698705       -0.6366339123       -9.4244686037
 H        -7.1463525784        2.3965134698      -10.6035153873
 H        -6.6828247153        3.6457787857      -11.9652926646
 H        -7.6400096819        4.0539794776      -10.4943114508
 H        -4.0085581163        4.9443251547      -11.1887017277
 H        -4.4746878772        5.7461885660       -9.6333897564
 H        -5.5963491281        5.6472293173      -10.9934659333
 H       -11.2393954538        2.7911234048       -5.0172845622
 H       -10.4675117322        3.1532710186       -6.5157371194
 H        -9.7538352137        3.6254320490       -4.9506974752
 H        -8.8459106053        1.9331946746       -3.4150818806
 H        -8.7582352348        0.2199024992       -3.7840347426
 H       -10.1958062179        0.7684799828       -3.4908101833
 H       -12.0308874001       -3.0239736174       -9.7831737782
 H       -13.8062489964       -3.1232340503       -9.3462101222
 H       -12.8596941031       -4.4975640130       -9.0370337549
 H       -13.9707197867       -1.5154776518       -7.3643231084
 H       -12.6509657890       -0.6736360073       -8.1909920423
 H       -12.5217176542       -1.0301919955       -6.3975672847
 H       -15.5029650294       -7.5555199203       -8.1447759637
 H       -16.4445890318       -6.3605653868       -7.0875031408
 H       -17.1816573193       -7.8395525132       -7.4671927947
 H       -16.0095660140       -7.7626948221       -3.9131841776
 H       -17.3688440291       -8.5095472323       -4.6745999644
 H       -16.9316622326       -6.6971904633       -4.9020760325
 H       -12.6003321303      -13.4213178827       -8.5210077688
 H       -13.8792145912      -13.8484679341       -9.6651064907
 H       -12.9505841126      -15.1355487703       -8.6009332825
 H       -16.1744796356      -15.3304038247       -7.0076249964
 H       -15.1216696604      -16.0475594429       -8.3457686523
 H       -16.4896563420      -14.7570749319       -8.6532520146
 H       -13.4157387439      -15.4904289995       -1.3539605770
 H       -14.1324513060      -16.9716458219       -1.5532803747
 H       -14.8345092096      -15.8151757157       -0.3702246118
 H       -17.1458197155      -16.0584394386       -3.3785931715
 H       -17.2345128651      -16.0708110089       -1.5594576281
 H       -16.2609629166      -17.3237932302       -2.3860222681
 Na      -15.5935762784      -12.5990359922       -4.9078040972
 Na        5.7152115752        3.1502898883      -14.5608502219
