232

 C        -7.9182448105        7.2113193227      -12.3253985350
 C        -6.5056408701        7.2274450387      -11.8303508486
 O        -6.0524125433        6.3416480992      -11.1079595661
 C        -5.5792374439        8.4855116446      -11.8977714551
 C        -4.3189799516        8.1005347486      -12.8207736395
 O        -3.2576506718        7.7065426007      -12.4174033379
 C        -4.7108806201        8.0136473536      -14.2700062769
 C        -3.6116861589        7.1537502767      -14.8919624726
 C        -3.5646760217        5.6841388004      -14.4346422507
 O        -4.2920059609        5.3367058122      -13.5145233114
 C        -2.5388579529        4.6724187984      -14.8926813122
 C        -1.4183789781        4.7612952743      -13.7415340090
 O        -1.7383891263        4.9778462031      -12.5730255075
 C         0.0624844328        4.8003908077      -14.0880041965
 C         0.6973266348        6.1491672691      -13.6785420606
 C         0.2289693299        7.4153430255      -14.3949351942
 O        -0.5711434044        7.2077972336      -15.2615174857
 C         0.7358374659        8.9344345016      -14.0253590777
 C         0.5839865092        9.2207132595      -12.4577543246
 O         0.6399032957        8.3155724693      -11.6438169877
 C         0.5600918587       10.6436751696      -11.8763618793
 C         1.0542234224       10.7944445840      -10.4247001088
 C        -0.1391407282       10.7229433352       -9.4350299147
 O        -1.2677427383       10.7763138306       -9.8243460724
 C         0.0608271693       10.4678480031       -7.8742307841
 C        -0.0543861685        8.8015261492       -7.7880297973
 O         0.9267229841        8.0880511324       -7.7373900891
 C        -1.4582023787        8.0691878167       -7.8156851742
 C        -1.2275076426        6.8522280918       -8.7153468621
 C        -2.3294116427        5.7848391643       -8.7357084235
 O        -3.4888112233        6.1098968642       -8.8690605156
 C        -1.8075227806        4.2709616231       -8.6448946565
 C        -2.7780712206        3.2553286801       -9.4363864324
 O        -3.3147352276        3.5349620684      -10.5026600635
 C        -2.7900012163        1.7913570486       -8.8693043582
 C        -3.1675646569        0.7528869720       -9.9256249371
 C        -3.5949482405       -0.6835262328       -9.3718465642
 O        -4.2418369313       -0.7573526465       -8.3673018790
 C        -3.0617507695       -2.0463723893      -10.0184460840
 C        -2.0314183547       -2.9264901875       -9.1320229606
 O        -0.8347470099       -2.9536974213       -9.3299458832
 C        -2.5865026947       -3.9916324683       -8.0613871748
 C        -1.5272111367       -4.3780192150       -7.0257724704
 C        -1.3705817533       -5.8799863705       -6.7718115784
 O        -2.0395000624       -6.6412913402       -7.4346927366
 C        -0.3534166172       -6.3994753598       -5.5814224553
 C         0.7931693845       -7.3722030569       -6.2362022119
 O         0.4565348754       -8.0890687516       -7.1675589342
 C         2.1749732598       -7.5120306073       -5.6226272755
 C         3.1968115475       -8.1426862760       -6.5693350382
 C         3.0933147391       -9.6675251627       -6.6158279452
 O         2.2484958759      -10.2110425837       -5.9611052901
 C         4.0640747915      -10.3966920129       -7.5785108073
 C         2.9774059611      -11.0512462272       -8.7129387206
 O         2.7186522274      -10.4382643005       -9.7331123442
 C         2.2364843644      -12.3610789374       -8.1860266447
 C         1.2448068812      -12.8951016053       -9.2406074669
 C        -0.0580763443      -12.0248180426       -9.2118561527
 O        -0.4322086029      -11.3963772175       -8.2438227912
 C        -0.7922362928      -11.8065839640      -10.6890221847
 C        -2.0841007841      -11.0018905817      -10.2184715819
 O        -1.9136401666       -9.7505606427      -10.0583344158
 C        -3.4725007954      -11.6956469306       -9.8229507748
 C        -4.5424003408      -10.6761137549       -9.4373641918
 C        -4.4889138524      -10.4694683230       -7.9789962243
 O        -3.5771908255       -9.8887931873       -7.3932163029
 C        -5.6597142758      -11.1070709387       -7.1036135257
 C        -7.0754161883      -10.5575124689       -7.7017021780
 O        -7.7195399719      -11.3866179720       -8.3171172783
 C        -7.4538316066       -9.0657605460       -7.3177182383
 C        -8.4768436696       -8.4860075850       -8.2449313784
 C        -7.6909260549       -8.3405231244       -9.5033899327
 O        -6.5877744840       -8.7982474586       -9.5887526224
 C        -8.3580797027       -7.5392335967      -10.7240336847
 C        -8.9222937735       -6.0991629573      -10.4772562131
 O        -9.1037115367       -5.8208346573       -9.3186385014
 C        -9.2284307986       -5.0743816012      -11.6057109940
 C       -10.7120680919       -4.4814206722      -11.4998401965
 C       -11.3305663894       -4.5073160353      -12.8447194495
 O       -10.7789019859       -5.1611155044      -13.7147588754
 C       -12.7883617993       -3.8187865865      -13.0130417404
 C       -13.6916622770       -4.8317458792      -12.3402689450
 O       -13.4134227755       -5.1310728558      -11.2105238796
 C       -14.9681485147       -5.3309412012      -13.0541524110
 C       -12.7404283617       -2.3767741302      -12.3115380018
 C       -13.0632200204       -3.7303627647      -14.4551860748
 C        -7.1730853143       -7.4652617432      -11.7006389671
 C        -9.4080755029       -8.4952231542      -11.3807890750
 C        -5.5335560808      -12.6750770803       -7.3546298545
 C        -5.4550237324      -10.6256754240       -5.6537322840
 C         0.0570500084      -10.9564368225      -11.7009967644
 C        -1.1290428084      -13.1286894396      -11.3621596549
 C         4.9004878781       -9.3501757979       -8.3148247801
 C         4.9971758380      -11.2550809152       -6.8201117646
 C         0.3511119529       -5.2327304654       -4.7864515087
 C        -1.2385835705       -7.2610311551       -4.6472742058
 C        -4.3215335967       -2.8596664346      -10.0823479715
 C        -2.4376042953       -1.8041831829      -11.4317342935
 C        -0.4595160182        4.1030594165       -9.4185988459
 C        -1.4385484685        3.9452427109       -7.2100839730
 C         1.4437234625       10.7579257088       -7.3162411463
 C        -1.1925772245       10.9110447763       -6.9619015382
 C         2.3145788738        8.9045050360      -14.3118975778
 C        -0.0614208887        9.8764210989      -14.9608059678
 C        -3.1102553041        3.2326425124      -14.6668048646
 C        -2.2138511350        4.8356708829      -16.3204663718
 C        -6.3605722803        9.7242742237      -12.4946274459
 C        -4.9904433973        8.6053902370      -10.3711251194
 H        -7.9099926011        6.6506660865      -13.2997401020
 H        -8.4798113545        8.1189565856      -12.3899037073
 H        -8.5307104408        6.6756135079      -11.5657034337
 H        -4.6953423638        8.9614706957      -14.8705485444
 H        -5.7091319860        7.6394349388      -14.4187519012
 H        -2.6076073359        7.6013154281      -14.6991221611
 H        -3.8194880534        7.1734637799      -15.9745230534
 H         0.1737191479        4.5474013661      -15.1138975688
 H         0.4939243740        3.9697525687      -13.5478947460
 H         1.8242616571        6.0912249837      -13.8436459088
 H         0.5435744183        6.4573097450      -12.6473870563
 H        -0.5396410986       10.8100607426      -11.8366870242
 H         1.1407251646       11.4074559072      -12.4788624147
 H         1.6453486860       11.7790501132      -10.3749520819
 H         1.7525499477       10.0574344810      -10.0713746161
 H        -2.2478393301        8.6543895218       -8.2737075715
 H        -1.6853553789        7.8215600344       -6.7929208477
 H        -0.3083010384        6.3651563134       -8.5098831365
 H        -1.1786583210        7.1778645185       -9.7675422560
 H        -3.5616804211        1.8460470744       -8.1000863290
 H        -1.8023491409        1.6055739963       -8.3728010770
 H        -2.3971908255        0.7897999867      -10.7116583716
 H        -3.9874239385        1.1565809704      -10.5448349452
 H        -2.7259664618       -4.7867590902       -8.7610747522
 H        -3.4731669322       -3.5520537327       -7.6456377309
 H        -1.7149698426       -3.8741945215       -6.1094558722
 H        -0.5619055931       -4.0285713549       -7.4934673521
 H         2.0645288294       -8.2786609396       -4.8453444679
 H         2.5698706082       -6.5661860176       -5.2358649563
 H         4.1339486647       -7.7487549234       -6.0977905873
 H         3.2806683578       -7.6342289866       -7.5404920638
 H         1.6329645253      -12.1118827660       -7.3090593899
 H         3.0168163205      -13.0010679391       -8.1057433934
 H         0.9785394163      -13.8808890044       -8.8968162630
 H         1.7392060478      -12.9877253671      -10.1810506728
 H        -3.2312357651      -12.3333411344       -8.9945982903
 H        -3.8145865644      -12.4724258806      -10.5958561576
 H        -5.5516981516      -10.9154112971       -9.7104262957
 H        -4.3125379446       -9.7556199454       -9.9695416130
 H        -6.4789400162       -8.5752232152       -7.4843613470
 H        -7.7908160033       -9.0554483922       -6.2588396370
 H        -8.8175545571       -7.5751388671       -7.8959089621
 H        -9.3094184883       -9.1249680702       -8.3760869358
 H        -9.1714029006       -5.4405783841      -12.5941330198
 H        -8.5015276389       -4.2373570181      -11.3813327337
 H       -10.7247723291       -3.4199509909      -11.2603233711
 H       -11.3303960006       -5.0152843647      -10.6897710781
 H       -15.6128593320       -4.4494279945      -13.2746640705
 H       -15.4918279411       -6.0198482985      -12.4318825803
 H       -14.5972889328       -5.8113908062      -13.9804257787
 H       -13.6999486053       -2.0004416775      -12.3921880961
 H       -11.9953791343       -1.7357945035      -12.7101117771
 H       -12.6974250969       -2.4149972470      -11.2001303756
 H       -12.2856336123       -3.2008349141      -14.9959747148
 H       -14.0136380238       -3.2981482773      -14.6982877097
 H       -13.0962629406       -4.6626189534      -14.9306479870
 H        -7.4103414190       -6.8669848332      -12.5674358775
 H        -6.8297685289       -8.4125163247      -11.9999717787
 H        -6.3856563381       -6.9021727959      -11.1443816773
 H       -10.3205011757       -8.6599294667      -10.7042261390
 H        -8.9519243372       -9.4926616511      -11.6386730320
 H        -9.7044540583       -8.1426852756      -12.3409164663
 H        -6.2583531757      -13.2610019143       -6.7553759658
 H        -4.5329807991      -12.8956304651       -7.0183980775
 H        -5.6651909664      -13.0187314989       -8.3957569075
 H        -6.1043259042      -11.1852970175       -4.9294041119
 H        -5.5647696932       -9.5815899171       -5.4701959666
 H        -4.4150058374      -10.8501208508       -5.4713546453
 H         1.0183880230      -11.4529920110      -11.9190039571
 H         0.2344617610       -9.9821684392      -11.3534865058
 H        -0.5536640899      -10.7955483181      -12.5998433991
 H        -0.1806928045      -13.3234054875      -11.9584663121
 H        -1.9471208168      -13.0890309599      -12.0543415536
 H        -1.3867665805      -13.8713775058      -10.6602413995
 H         4.2911152408       -8.8264303650       -9.0744285278
 H         5.8285374135       -9.7306466779       -8.7602022667
 H         5.3165501909       -8.5720190342       -7.6115822866
 H         4.6406116872      -12.1215732911       -6.3678352247
 H         5.4514747185      -10.7434266079       -5.9713101460
 H         5.8420009748      -11.5716234043       -7.3647428224
 H         0.7090541984       -5.7273837194       -3.8880691830
 H        -0.3378647284       -4.4008789949       -4.6163541093
 H         1.1992925926       -4.8016419692       -5.2730588407
 H        -0.7782581416       -7.3015265809       -3.7166537112
 H        -1.5660209382       -8.2323131807       -5.0361205484
 H        -2.1373631475       -6.7428216676       -4.4907033040
 H        -4.8998427459       -2.4140665899      -10.8045929745
 H        -4.7181996904       -2.6512141672       -9.1515428263
 H        -4.0971645033       -3.9114450416      -10.1294524579
 H        -1.6994791138       -1.0704216060      -11.4451879388
 H        -3.1354376647       -1.4973999977      -12.2307513089
 H        -2.1044760637       -2.7306706694      -11.8155105572
 H        -0.6362355128        4.3432734839      -10.4368820437
 H        -0.2041170418        3.0566314302       -9.2517315193
 H         0.3000809836        4.7107305356       -8.9500533196
 H        -0.7558019350        3.0750735523       -7.0834816058
 H        -2.2345818419        3.7689618631       -6.5280163749
 H        -0.8982652618        4.8512828709       -6.8074539468
 H         1.6307494667       10.4425888481       -6.2726417295
 H         1.9482064789       11.7113388709       -7.4600485840
 H         2.1187581600       10.1574200877       -7.9697451628
 H        -0.7693878295       11.7006998514       -6.3276906579
 H        -1.4818695684       10.0625108913       -6.3332205104
 H        -2.0014747184       11.4201867056       -7.5304876736
 H         2.6403636248        9.9675232846      -14.2454679144
 H         2.6877983544        8.4358592571      -15.1964823380
 H         2.7346183217        8.4195079474      -13.4015760974
 H         0.2547851019        9.8117967261      -15.9962532384
 H        -0.0679103850       10.9291802505      -14.6801376117
 H        -1.1151380887        9.5824063003      -15.0420581929
 H        -3.3805185721        3.1046099937      -13.6751630300
 H        -2.4201413183        2.5219302616      -15.0959314556
 H        -4.0531667953        3.2323277587      -15.2068673964
 H        -1.7494358447        5.7824369513      -16.4229792841
 H        -3.2113031846        4.7691024899      -16.8365245593
 H        -1.5282188960        4.0927851315      -16.7144363578
 H        -6.4665889544        9.8168273844      -13.5929960650
 H        -6.0260412654       10.6977604288      -12.1931766068
 H        -7.3333275868        9.5821345662      -12.0310179650
 H        -4.3859187091        7.7999316602      -10.1923133238
 H        -5.7952458135        8.5070348350       -9.6881708265
 H        -4.4605047528        9.5554434691      -10.1847104340
 Na       -3.9802673247        5.5460623881      -11.3780693979
 Na       -1.6245905812       -9.0696642661       -7.9947044464
