232

 C        -7.9959300644        7.4622893646      -11.8608325017
 C        -6.5048116129        7.3273010517      -11.7966370235
 O        -5.9733552951        6.2905931533      -11.4246013417
 C        -5.5400897790        8.6080730481      -12.0401866803
 C        -4.5233258701        8.0148317429      -13.0362677161
 O        -3.4586977249        7.6181158660      -12.5473212078
 C        -4.8665491127        7.8262813263      -14.4998918463
 C        -3.9807003771        6.7753160203      -15.2480959717
 C        -3.8388902790        5.4664193875      -14.5057590808
 O        -4.6481502653        5.1111651359      -13.6575700613
 C        -2.5957352600        4.6654825043      -14.8731019692
 C        -1.3800527380        5.0454854129      -13.8924650116
 O        -1.6387113559        5.1851839359      -12.7523051806
 C         0.1164148195        4.8069483524      -14.3302203682
 C         0.9283921338        6.0134135429      -14.0015604631
 C         0.3006350748        7.3874183342      -14.3739495815
 O        -0.8469458747        7.4923147381      -14.8066544023
 C         1.0480507599        8.6988819125      -14.0493176674
 C         1.1655082807        8.7794838883      -12.4511262191
 O         1.5005243853        7.8690329426      -11.7110160149
 C         0.7238707632       10.1692124093      -11.8636505323
 C         1.0895881184       10.2696673063      -10.4400258181
 C         0.0496326940       10.6822693599       -9.4583470512
 O        -1.0060227644       11.1138143370       -9.9667548237
 C         0.2215996417       10.1577085829       -7.9683997067
 C        -0.1648289757        8.6845131867       -7.9106693490
 O         0.5251002529        7.9950520787       -7.1445377064
 C        -1.3184287702        8.1218076744       -8.6864261296
 C        -0.8711799136        6.6618167758       -9.0494447505
 C        -2.0659631431        5.6364994030       -8.9068369095
 O        -3.2070513513        6.0197501500       -9.0985698986
 C        -1.7169053662        4.0566121969       -8.6188191830
 C        -2.8705546994        3.1712483036       -9.1327424286
 O        -3.3953706003        3.4669265643      -10.2150181303
 C        -3.0988293119        1.7498222220       -8.5286760280
 C        -2.9744152579        0.6043488678       -9.6006277636
 C        -3.4460950230       -0.8924627852       -9.1712089475
 O        -4.0589431003       -1.1653495473       -8.1558143015
 C        -2.8980837874       -2.1579049880      -10.0628145295
 C        -2.1025223696       -2.9277862214       -8.8193959479
 O        -1.0809594993       -2.4375886474       -8.4370481513
 C        -2.9216561042       -3.9312800414       -7.9023053333
 C        -2.0387350444       -4.4722533222       -6.7785747107
 C        -1.3945972094       -5.8586516113       -6.9474774737
 O        -1.8420529445       -6.6743734489       -7.6949423068
 C        -0.4810765189       -6.3282748241       -5.7843900975
 C         0.5597669238       -7.3457647708       -6.3403337665
 O         0.2817544946       -8.1612167509       -7.2086732957
 C         1.9896847435       -7.1735975354       -5.9244474098
 C         3.0001442808       -7.7838025126       -6.8877282241
 C         3.2820863461       -9.2876020328       -6.6697238360
 O         2.8703093422       -9.9337379783       -5.7087456169
 C         4.0964803895      -10.0626011230       -7.7202645310
 C         3.1120102805      -10.8089735518       -8.6790609919
 O         3.0562817050      -10.5209043811       -9.8375834826
 C         2.2116259869      -11.8957189339       -8.0218124431
 C         1.0354234652      -12.5420727944       -8.9792829372
 C        -0.1406813217      -11.6421756753       -9.1395874257
 O        -0.4884570265      -10.8783860691       -8.2717803607
 C        -0.8686650792      -11.4998090913      -10.5472393144
 C        -2.2149089469      -10.7775555438      -10.3551772832
 O        -2.2371184785       -9.5870281423      -10.5123429335
 C        -3.4673559933      -11.5589107929       -9.9287999715
 C        -4.6292871267      -10.8489924790       -9.2348649594
 C        -4.4496593572      -10.6222793297       -7.7237000745
 O        -3.6309611137       -9.9301955685       -7.1604686396
 C        -5.6761578711      -11.2086707122       -6.8705995855
 C        -6.9787231059      -10.8198616955       -7.5717949516
 O        -7.4070517513      -11.4816681353       -8.4873028549
 C        -7.5174064287       -9.3750354955       -7.3562179108
 C        -8.4585335463       -8.9586621086       -8.5139715377
 C        -7.6717853865       -8.1187566345       -9.5583635200
 O        -6.4353255302       -7.9555183110       -9.5231031882
 C        -8.4195383087       -7.5004211343      -10.7774444958
 C        -8.9628769602       -6.1551652776      -10.3759069498
 O        -9.4538107963       -6.1398947468       -9.2541446049
 C        -9.3128133507       -4.9756312328      -11.3665046460
 C       -10.8768112840       -4.5893518690      -11.3329331899
 C       -11.4465435455       -4.2678165688      -12.6699053730
 O       -10.7974574160       -4.3947313789      -13.6841580068
 C       -12.9794293125       -4.0264401938      -12.8463321720
 C       -13.9105454811       -5.0943053377      -12.1084270072
 O       -13.4628592743       -5.6882652742      -11.1744474211
 C       -15.3828684916       -5.2999436446      -12.6907500846
 C       -13.3107001093       -2.6333827475      -12.3704241057
 C       -13.1601407795       -3.9707835534      -14.3965935151
 C        -7.5663829660       -7.5309613936      -11.9909912650
 C        -9.7032943482       -8.3601237059      -11.2259574043
 C        -5.5935242636      -12.7444165842       -6.6709934356
 C        -5.5288913720      -10.5435729584       -5.4238855725
 C        -0.0563784610      -10.6136071265      -11.4909107191
 C        -1.0578561263      -12.9320491119      -11.1589164321
 C         4.9896525946       -9.1482634674       -8.5486941528
 C         5.0306413095      -11.1355137476       -7.0366525889
 C         0.1103663396       -5.1635204869       -4.8692602043
 C        -1.5096962369       -7.1792647632       -4.8388301433
 C        -4.1335710306       -2.9512807532      -10.6364188544
 C        -1.8396123083       -1.7886807836      -11.1933822921
 C        -0.4757142188        3.5026397215       -9.4852422455
 C        -1.4948497362        3.8693855809       -7.0649050348
 C         1.6756892797       10.3703469325       -7.5200027280
 C        -0.8076092760       10.8152896638       -7.0526863194
 C         2.5423388816        8.6625184556      -14.4014377913
 C         0.4063015142        9.9772051221      -14.6442118793
 C        -2.9645526542        3.1543326904      -14.6061817002
 C        -2.2142168282        5.0164795007      -16.3720332303
 C        -6.0843426088        9.9832817872      -12.6150962885
 C        -5.0044861795        8.8762810810      -10.6249089705
 H        -8.2736769045        8.2537303126      -12.5895406177
 H        -8.4498474021        7.8271946164      -10.8868423940
 H        -8.4435944358        6.4912615102      -12.0963265013
 H        -4.8471867088        8.8302910006      -14.9741058557
 H        -5.9039053440        7.4977745186      -14.5024135646
 H        -3.0213268427        7.2807795718      -15.1852163906
 H        -4.3736843857        6.5450419011      -16.2602752629
 H         0.0533455250        4.4755854768      -15.3617574948
 H         0.5969762268        4.0082965041      -13.8093453136
 H         1.8998179688        6.0330703095      -14.6012191810
 H         1.3440240111        6.1349570308      -13.0057546758
 H        -0.3307389503       10.2853931135      -12.1602087068
 H         1.2719035027       10.9502743825      -12.4893863282
 H         1.8481152138       11.0673577761      -10.2741417681
 H         1.5787792016        9.3410362361      -10.0861653823
 H        -1.7310294074        8.7135861102       -9.4749692936
 H        -2.1014818971        7.9971816653       -7.9078529564
 H        -0.0751172501        6.3039511344       -8.3500026749
 H        -0.4876242833        6.6217296528      -10.0106211752
 H        -4.1027608590        1.6683394622       -8.0577245006
 H        -2.3314560482        1.5427384594       -7.7082115711
 H        -2.0500227821        0.6767106258      -10.1378511103
 H        -3.7563440324        0.7564262123      -10.3843426946
 H        -3.3553844287       -4.6727931934       -8.5119915100
 H        -3.6727073653       -3.1434195754       -7.4739448660
 H        -2.7803286171       -4.6222038071       -5.9632009082
 H        -1.2105462389       -3.8781980610       -6.4334357015
 H         2.0015984610       -7.6764411850       -4.9660380430
 H         2.0804753016       -6.0875361357       -5.7238888242
 H         3.9388664234       -7.2430376618       -6.9976362221
 H         2.6565200279       -7.6217848258       -7.9454703808
 H         1.8759168918      -11.4507696183       -7.1460406050
 H         2.9842299892      -12.7382006489       -7.7309984738
 H         0.8706602449      -13.5260672286       -8.5706450204
 H         1.5480864244      -12.6187606187       -9.8880033046
 H        -3.2475446680      -12.5137481156       -9.3070237220
 H        -3.8845247711      -11.9887574133      -10.7650287673
 H        -5.4913556922      -11.4660933389       -9.4261902331
 H        -4.7701758615       -9.8605444801       -9.6392342997
 H        -6.5902900785       -8.7715433436       -7.4471734293
 H        -8.0001782318       -9.3070981732       -6.3468192506
 H        -9.2139029989       -8.3424926393       -8.1372188982
 H        -8.8449408865       -9.8086015556       -8.9374625603
 H        -9.1225553207       -5.1486338677      -12.4583356469
 H        -8.7247094705       -4.1388422836      -11.1083177072
 H       -11.1856623298       -3.8439130713      -10.4969564345
 H       -11.4483750870       -5.4677538701      -11.0239829545
 H       -15.7551729891       -4.2931303991      -12.7720928079
 H       -15.9655565869       -5.8928002038      -11.9309225917
 H       -15.3363290967       -5.8746064791      -13.6319263795
 H       -12.5655253672       -1.9433979441      -12.8167707980
 H       -13.2779092875       -2.5506093479      -11.3009457564
 H       -14.3079497359       -2.3340532975      -12.6707470970
 H       -12.4134867503       -3.2811621061      -14.7589357238
 H       -14.1177393099       -3.6425623265      -14.7098089085
 H       -12.9539430122       -4.8951182743      -14.9371361804
 H        -8.1594943427       -7.8827851120      -12.8628110069
 H        -6.7096586684       -8.2233568793      -11.8349431675
 H        -7.1349042961       -6.5840653010      -12.2284445433
 H       -10.5097154253       -8.4231551147      -10.4898485859
 H        -9.3073476541       -9.3827037507      -11.4841307002
 H       -10.3074648502       -7.9105478596      -12.0583749592
 H        -6.5632809710      -13.1697155765       -6.3326801059
 H        -4.7787491130      -13.0846617340       -6.0339046186
 H        -5.4694349051      -13.1568949182       -7.6947468799
 H        -6.2662227456      -10.9252866231       -4.7734152389
 H        -5.6218383921       -9.4503055196       -5.6202575900
 H        -4.6215088525      -10.7294588065       -4.9101580903
 H         0.9212057873      -10.9543869670      -11.7378740392
 H         0.1159384436       -9.5604549176      -11.1509240936
 H        -0.6710074042      -10.5766481763      -12.3775638237
 H        -0.1857254890      -13.3422102546      -11.5573360358
 H        -1.8995336891      -12.8337519022      -11.8558520751
 H        -1.2262706965      -13.5664806896      -10.2732354432
 H         4.2343571856       -8.5250199446       -9.0443393005
 H         5.6160101563       -9.7339660229       -9.2641425075
 H         5.7239389222       -8.6331739343       -7.9041124451
 H         4.5536064112      -12.0274776552       -6.6274759690
 H         5.5193809833      -10.6863706269       -6.2361845975
 H         5.8120029923      -11.5741031434       -7.6162389385
 H         0.3063388122       -5.6212622446       -3.9202919880
 H        -0.5546380814       -4.3178022734       -4.6371746767
 H         1.0466930411       -4.7759305553       -5.3156507048
 H        -1.1859448990       -7.4817087977       -3.8739227684
 H        -1.6592676100       -8.0939266125       -5.2951591537
 H        -2.4322346128       -6.6548521875       -4.7138579714
 H        -4.8724582400       -2.2719903674      -10.9723964011
 H        -4.4723466793       -3.5575742566       -9.8317578024
 H        -3.8179413700       -3.4675753531      -11.4540978672
 H        -0.9605584208       -1.2336363704      -10.8861728458
 H        -2.2366888016       -1.2622188458      -12.0276975409
 H        -1.4105972921       -2.7341802808      -11.5713256096
 H        -0.6731220087        3.6170568936      -10.5767062543
 H        -0.4732103787        2.4665555849       -9.2795701221
 H         0.4194565299        3.9667805269       -9.0917963562
 H        -1.0501790354        2.9293450981       -6.6988930082
 H        -2.4719038477        3.9849665169       -6.5242144350
 H        -0.8349675648        4.6379416341       -6.7687213401
 H         1.6138521353       10.4652152970       -6.4284895065
 H         2.2091992324       11.2632311855       -7.8944089915
 H         2.4837941917        9.6832617922       -7.5372237390
 H        -1.7100860569       11.0544230755       -7.6021923838
 H        -0.5158745973       11.7303996145       -6.4873940811
 H        -0.9855508129       10.0987076464       -6.2618185584
 H         2.9086496109        9.7093731532      -14.3189418997
 H         2.7033647699        8.3717076126      -15.4591384830
 H         3.1314004528        8.1355248223      -13.6695279637
 H         0.3488241741        9.8671140460      -15.7101292227
 H         0.8177492652       10.9497845120      -14.4972220554
 H        -0.6338039315        9.9476911425      -14.3913503465
 H        -3.3909636601        3.1489540316      -13.6087790784
 H        -2.0549364238        2.6345391951      -14.8125083678
 H        -3.6200422354        2.7666589327      -15.2856306530
 H        -1.5661004215        5.9177769221      -16.4373797512
 H        -3.0558838898        5.1918509952      -17.0453827957
 H        -1.6126583349        4.1743195253      -16.6790512021
 H        -6.3883292382        9.8787430419      -13.6363544999
 H        -5.3516111431       10.8106502643      -12.6070052783
 H        -6.9386784973       10.3917874173      -12.0903194822
 H        -4.5640749303        7.9726509820      -10.1907484159
 H        -5.7755024006        9.2958943731      -10.0401769064
 H        -4.2493150822        9.5654580246      -10.6913796278
 Na       -3.6793782927        5.4787186749      -11.6226107678
 Na       -1.7148191277       -8.9095604202       -8.2190810975
