232

 C        -8.0297029339        7.4350530033      -11.6321300852
 C        -6.5571697444        7.3258089505      -11.7696795330
 O        -5.9876317632        6.2719815981      -11.4818905190
 C        -5.5622309090        8.5311520479      -12.0787308874
 C        -4.4848642168        7.9692435502      -13.0860474376
 O        -3.3434744262        7.6605911452      -12.6810749823
 C        -4.9475419119        7.8596694986      -14.5125670777
 C        -3.9579426055        6.8922263951      -15.2249693045
 C        -3.8506434400        5.4759822927      -14.5253757927
 O        -4.7017107457        5.1436323020      -13.7041944979
 C        -2.5900890968        4.6021323218      -14.9068822328
 C        -1.4711997776        5.0116942739      -13.8846678292
 O        -1.6643657578        5.3628343899      -12.7195762166
 C         0.0050849400        4.8687914072      -14.3976107411
 C         0.9629801687        6.0299921237      -14.1541522046
 C         0.3372609326        7.3652569366      -14.4495899662
 O        -0.8564293781        7.3626127197      -14.7289582530
 C         1.0879715800        8.6647063898      -14.0633543736
 C         1.1360437330        8.7841918524      -12.4806373061
 O         1.6472382276        7.8773784633      -11.8479780282
 C         0.8461376284       10.1168440238      -11.7967179108
 C         1.3866394268       10.3117268017      -10.3879205347
 C         0.0645804508       10.5707915991       -9.4526186985
 O        -0.9664651485       11.0862799865       -9.8793020799
 C         0.1838455637       10.1395962525       -7.9201888787
 C        -0.0948938656        8.6133389715       -7.8116267305
 O         0.4069471366        7.8330888588       -7.0246844819
 C        -1.1380291633        8.0872675770       -8.8375495698
 C        -0.8527842728        6.5932559393       -8.9331354453
 C        -1.9371575617        5.5697689399       -8.9492379538
 O        -3.0501525043        5.9692383547       -9.2992209824
 C        -1.6385102702        4.0916284771       -8.5718874184
 C        -2.8750356223        3.1238331961       -9.1962014966
 O        -3.5630077552        3.4874565716      -10.1333559923
 C        -3.1575811591        1.7272345111       -8.5910262837
 C        -2.9840338012        0.5440136605       -9.6279643015
 C        -3.3549859655       -0.8425618069       -9.1802888587
 O        -4.0704141040       -1.0435543877       -8.2047470225
 C        -2.8424018915       -2.1432927279       -9.8891307187
 C        -2.0795295561       -2.7858509550       -8.6955947936
 O        -0.9959106053       -2.4342740898       -8.3173258792
 C        -2.8291647040       -4.0103318317       -8.0743965407
 C        -2.1536658209       -4.4786846808       -6.7441282399
 C        -1.4552194837       -5.8289648783       -6.9192043010
 O        -1.7999697853       -6.6043402450       -7.8378784098
 C        -0.5248577228       -6.3891374850       -5.7920821913
 C         0.5671164256       -7.2210937674       -6.4632362373
 O         0.1786303030       -8.1154034545       -7.1557561785
 C         2.0772300452       -7.1273963067       -6.0390230161
 C         2.9284367353       -7.8673485938       -7.0401111576
 C         3.3091994652       -9.2561336954       -6.5949986081
 O         2.9058056830       -9.7781332433       -5.5642159734
 C         4.1553714315       -9.9870188968       -7.7177158516
 C         3.0560562156      -10.8216648307       -8.5891908955
 O         3.0057492548      -10.5879016297       -9.7436277703
 C         2.2201537511      -11.9133995496       -7.9423017910
 C         1.0533353334      -12.4068364073       -8.8910283970
 C         0.0623178870      -11.3677788869       -9.2022699764
 O        -0.4448381926      -10.6682291062       -8.3579945313
 C        -0.8773465183      -11.4583733815      -10.6027300873
 C        -2.2464668727      -10.7393129613      -10.2688705020
 O        -2.3198147625       -9.5618142428      -10.3908366354
 C        -3.3928223030      -11.6527550462       -9.8877588199
 C        -4.5392829321      -10.8290860901       -9.2593006188
 C        -4.5005330799      -10.6530771391       -7.7082750720
 O        -3.5854483597       -9.9733855484       -7.2360394490
 C        -5.6569509177      -11.2002226256       -6.8724256581
 C        -6.9083637444      -10.7469567616       -7.6803924612
 O        -7.4709295457      -11.4992570042       -8.4453185644
 C        -7.4311780313       -9.2935284833       -7.4604596294
 C        -8.4284731537       -8.9304115166       -8.5477686742
 C        -7.7794840471       -8.1021684929       -9.5736149265
 O        -6.5686472575       -7.8829319261       -9.4198775925
 C        -8.5093495973       -7.6189941986      -10.8794261687
 C        -9.2267507932       -6.1668307238      -10.3397348272
 O        -9.4332345088       -5.9800066033       -9.1988201594
 C        -9.3756310014       -5.0183721675      -11.2924390046
 C       -10.8324999656       -4.6699966323      -11.2653390590
 C       -11.4538347019       -4.3927897136      -12.6272464015
 O       -10.7212353630       -4.2554550431      -13.6058373270
 C       -13.0094888994       -3.9987559356      -12.8019131749
 C       -13.9186485731       -5.0330515866      -12.0855662874
 O       -13.5748311641       -5.8933765439      -11.2368203347
 C       -15.3899076385       -5.3149816045      -12.6261604834
 C       -13.4701418438       -2.5183218385      -12.3346460481
 C       -13.1899899079       -4.0867853890      -14.3356366188
 C        -7.4524521100       -7.5385947006      -12.0796899014
 C        -9.7180551173       -8.5391676696      -11.2117654627
 C        -5.5291793400      -12.7520295047       -6.5875605130
 C        -5.6716240542      -10.4811675238       -5.3845145959
 C        -0.0585184280      -10.4955336791      -11.5602179504
 C        -1.2160462854      -12.8765924485      -11.2107487187
 C         4.9712603268       -9.0639674605       -8.6858572407
 C         5.1220698719      -10.9652211115       -7.0321801011
 C         0.0480578642       -5.2707655038       -4.8921191816
 C        -1.4987491837       -7.2921748294       -4.9796435456
 C        -4.0645520043       -2.7644507300      -10.5543724248
 C        -1.8222455771       -1.9838393334      -11.0688267609
 C        -0.5536315523        3.5039883997       -9.4422490254
 C        -1.5354817141        3.9408159494       -7.0533327715
 C         1.6022790934       10.3717528495       -7.3956283203
 C        -0.9560257109       10.6941871110       -7.0580971876
 C         2.6816760000        8.5804041382      -14.4547858126
 C         0.4545593897        9.7737235850      -14.8035810458
 C        -2.8598841729        3.0707313898      -14.6713523893
 C        -2.2496811923        4.9210881130      -16.3502399362
 C        -6.0393479065        9.9449516996      -12.6742364141
 C        -4.8841508223        8.9566059661      -10.6994704952
 H        -8.4639386296        8.1049127386      -12.3721106080
 H        -8.4174144658        7.8719952284      -10.6464315459
 H        -8.3862358626        6.4037478502      -11.7478080852
 H        -5.0381873277        8.7895320986      -14.9900923619
 H        -5.9522886670        7.4110191563      -14.4139925396
 H        -3.0281928633        7.4685094978      -15.1661671696
 H        -4.3628254661        6.6608174244      -16.2200719601
 H        -0.1049931727        4.5100115471      -15.4478813232
 H         0.5053948470        4.0322716036      -13.8777694310
 H         1.8776374033        5.9484858646      -14.6878406442
 H         1.4218734580        6.2381264110      -13.1099593354
 H        -0.2426907078       10.2660057398      -11.8982490235
 H         1.1961407937       10.8237326478      -12.4838534027
 H         2.0962074286       11.0604167506      -10.2590517158
 H         1.8209410324        9.3551685750       -9.9814675428
 H        -1.0675664723        8.5209843316       -9.8550055450
 H        -2.1428789031        8.3434913080       -8.4881412070
 H        -0.1305613618        6.2737634291       -8.2202275997
 H        -0.3858915043        6.4867207239       -9.8949351160
 H        -4.2509019297        1.7714478874       -8.1535762208
 H        -2.5167393781        1.4381233514       -7.7579821354
 H        -1.9203838789        0.5771567195       -9.8948776820
 H        -3.5300369281        0.6325559053      -10.5690824062
 H        -2.7718618771       -4.7622106601       -8.9803516255
 H        -3.7928926595       -3.6350356940       -7.9583680540
 H        -2.9897453374       -4.6066159941       -5.9534144737
 H        -1.3096872745       -3.8622766932       -6.3521060577
 H         2.1352620585       -7.5697879320       -4.9994373705
 H         2.2759607987       -6.0598323289       -5.9624322210
 H         3.8714276150       -7.3447620352       -7.2204232266
 H         2.5503074753       -7.8083439653       -8.0841185636
 H         1.8077836980      -11.4943056122       -6.9496640767
 H         2.9321978768      -12.7511314920       -7.6904694727
 H         0.6051595289      -13.1376885755       -8.2616793482
 H         1.5246608544      -12.9217046461       -9.7793334274
 H        -3.1941081761      -12.5471847276       -9.3325914253
 H        -3.8210817144      -12.0123269392      -10.8135486195
 H        -5.4358453028      -11.3143621922       -9.5783309564
 H        -4.4474986621       -9.8387377930       -9.6525989742
 H        -6.5326236334       -8.6367151455       -7.4188527284
 H        -7.9998756551       -9.3374659650       -6.5053975438
 H        -9.2528104215       -8.4438874792       -8.1027935612
 H        -8.7543506181       -9.8420029476       -8.9953599956
 H        -9.0541626402       -5.1934641171      -12.3122246879
 H        -8.7558756529       -4.2522255183      -10.9481547918
 H       -10.9950237984       -3.7171417356      -10.6965432062
 H       -11.3253827181       -5.3583594917      -10.6134326889
 H       -15.9989815006       -4.3946252085      -12.7069489577
 H       -15.7562166187       -5.9083859272      -11.8087446057
 H       -15.3669908647       -5.9258943353      -13.4963800583
 H       -12.5635902456       -1.8473662704      -12.2623043096
 H       -13.8862569598       -2.5977604399      -11.3465030100
 H       -14.2030154280       -2.1265055620      -12.9223782615
 H       -12.5077844503       -3.3374342049      -14.8501368286
 H       -14.1608875853       -3.8251720589      -14.5449324271
 H       -13.0162398822       -5.0236285778      -14.7384876803
 H        -7.7906183486       -7.5718915376      -13.0378591522
 H        -6.6729942958       -8.3004752692      -11.9194142565
 H        -6.9368490081       -6.6359871879      -11.8988446034
 H       -10.5164102200       -8.4150552546      -10.5167116439
 H        -9.4734513118       -9.6018949512      -11.3109220730
 H       -10.2894696518       -8.1330982645      -12.1192398306
 H        -6.5143359556      -13.0894878717       -6.3763005660
 H        -4.8510348791      -13.0351709014       -5.7223621732
 H        -5.2221576641      -13.2819702604       -7.4778910395
 H        -6.2428641362      -11.0543303297       -4.6931397900
 H        -5.9875307555       -9.4571068543       -5.5017118621
 H        -4.6627328458      -10.4977588280       -4.9121455714
 H         1.0215464372      -10.6924229981      -11.6719456353
 H        -0.0685070034       -9.5178106758      -11.0931298245
 H        -0.4677361884      -10.3998979810      -12.5463943255
 H        -0.3925275892      -13.3394487125      -11.6841922955
 H        -2.0766318458      -12.6071180187      -11.8892698361
 H        -1.4216070551      -13.5779287031      -10.3549215580
 H         4.2645883643       -8.7475113392       -9.5224728006
 H         5.8576537723       -9.6758771815       -9.0864283597
 H         5.4692925000       -8.2255834960       -8.0909322205
 H         4.5372982110      -11.7914799678       -6.6751184010
 H         5.4578056905      -10.5040446761       -6.1228077305
 H         5.9613070666      -11.4689118313       -7.4694554232
 H         0.5351125503       -5.7277673461       -4.0279948751
 H        -0.6966870117       -4.6860665765       -4.4522629209
 H         0.7442755603       -4.6936156259       -5.4761498673
 H        -1.4178007415       -7.4694940647       -3.9465625218
 H        -1.3689592682       -8.3094243273       -5.3311935941
 H        -2.4688555364       -6.9867769951       -5.1361409178
 H        -4.6564651668       -2.0538874916      -11.0475589338
 H        -4.6008919896       -3.3241816812       -9.7854750818
 H        -3.6678682364       -3.3642933866      -11.3172585993
 H        -0.9295564470       -1.3652953031      -10.7846326849
 H        -2.2300507924       -1.5007040239      -11.9097359304
 H        -1.3530480994       -2.9133521229      -11.3151859027
 H        -0.8440171694        3.6829054717      -10.4506025226
 H        -0.4751284573        2.4293437571       -9.3087897804
 H         0.3354765433        4.0279370565       -9.1254808855
 H        -1.2932708227        2.9406379092       -6.7604689614
 H        -2.5039375653        4.1983117782       -6.5240462771
 H        -0.7084359320        4.5693057265       -6.6803620276
 H         1.6296103514       10.3158515812       -6.3295221674
 H         2.2387309652       11.2773913411       -7.7006402776
 H         2.4069616120        9.5796965525       -7.5458752914
 H        -1.9977231176       10.3673660232       -7.3942886583
 H        -1.0675625709       11.8152407817       -6.9784464303
 H        -0.6670049016       10.3650541931       -6.0281042331
 H         3.1095570460        9.5339044263      -14.5496515809
 H         2.6352822033        8.1811335151      -15.5002318945
 H         3.3090068653        8.0463901632      -13.7453659142
 H         0.6662906043        9.8370891544      -15.9189270771
 H         0.7451972961       10.7933926111      -14.4556868250
 H        -0.6442048137        9.6895443634      -14.7087272257
 H        -3.0120613700        2.9919254316      -13.6153867322
 H        -2.0652639024        2.5770011816      -15.0975899248
 H        -3.7458846661        2.7251325167      -15.2560271220
 H        -2.0485203472        6.0201603786      -16.4554196116
 H        -3.0777270779        4.7464295798      -16.9486321633
 H        -1.3953548341        4.3411622721      -16.7330589544
 H        -6.1882762121       10.0729176220      -13.7675027923
 H        -5.3738867865       10.7411715731      -12.3152738783
 H        -7.0062008939       10.2747531174      -12.2728214473
 H        -4.2259525802        8.1760092060      -10.3584388265
 H        -5.6994878427        9.0757930503       -9.9903759535
 H        -4.3586252393        9.8964801094      -10.7542981561
 Na       -3.7321565198        5.3547634021      -11.6023571209
 Na       -1.8488379574       -8.8798692004       -8.2198600217
