232

 C        -8.0051824615        7.5496415135      -11.4846245866
 C        -6.4945480354        7.3648773485      -11.6976818306
 O        -6.0177727223        6.2729865706      -11.5361066028
 C        -5.5124926025        8.6485243572      -11.9788758123
 C        -4.4212419465        8.0586906016      -13.0511832806
 O        -3.3233333518        7.7256142560      -12.7995312342
 C        -4.9559697628        7.7511572301      -14.4960878081
 C        -3.9454724203        6.8750387790      -15.2756488112
 C        -3.8909891819        5.5388842615      -14.5976580507
 O        -4.7165218194        5.1063653877      -13.8300202074
 C        -2.5881162243        4.7183577382      -14.9283583867
 C        -1.4456862743        5.1095098966      -13.9472857019
 O        -1.6373821779        5.4203242686      -12.7519423403
 C        -0.0053194935        4.7928192938      -14.4499048478
 C         1.0569537224        5.8504896577      -14.1593591057
 C         0.3015832517        7.3039595294      -14.2907582300
 O        -0.8101476470        7.3783706946      -14.7285363701
 C         1.1474114597        8.6691710772      -14.1452554153
 C         1.3531644195        8.8324016609      -12.5269823890
 O         1.6913734509        7.8305200290      -11.9272491784
 C         0.9104864617       10.1698876336      -11.8225829240
 C         1.3341714939       10.2680868537      -10.2952976676
 C         0.1657473070       10.4763028604       -9.3273625687
 O        -0.7791092010       11.0019193359       -9.7597072159
 C         0.1907308195       10.0642243832       -7.8115884397
 C        -0.0445868598        8.5168800245       -7.8134682822
 O         0.3633956628        7.9203134495       -6.8839274357
 C        -0.9165040549        7.7321707823       -8.9419720261
 C        -0.6353550242        6.2697629997       -9.0055244279
 C        -2.0136007475        5.4911244516       -9.1467016803
 O        -3.0863680818        5.9416079735       -9.4902338577
 C        -1.8020348286        4.0091397649       -8.6694355576
 C        -3.0571784156        3.0758469942       -9.1660261222
 O        -3.7119258505        3.4540720099      -10.1029423979
 C        -3.1642646344        1.6489430528       -8.6007061926
 C        -2.8703027280        0.6976089513       -9.7306553767
 C        -3.2905029394       -0.6865512737       -9.1123473797
 O        -4.1185357179       -0.8058988236       -8.2526000474
 C        -2.7553955013       -2.0575892659       -9.7651096154
 C        -2.0686215609       -2.8390456159       -8.7107100503
 O        -0.9862683142       -2.4556020406       -8.2356700147
 C        -2.7757229778       -4.1352939715       -8.1638174833
 C        -2.2100751158       -4.4296385904       -6.7816410018
 C        -1.6046082306       -5.8283752944       -6.9332631162
 O        -1.7901330908       -6.3981461603       -7.9985106399
 C        -0.7030266279       -6.4520317591       -5.7978222500
 C         0.4805969654       -7.2823992321       -6.4470665352
 O         0.2846055620       -8.1865231702       -7.2120141989
 C         2.0249826495       -7.0140842922       -6.1397520346
 C         2.8750184625       -7.7826300720       -7.1641781552
 C         3.3273483052       -9.1766027615       -6.6812312772
 O         3.0480616751       -9.5937745612       -5.5940407737
 C         4.1559853919      -10.0630468791       -7.6750146943
 C         3.1383800324      -10.8950124447       -8.5668171713
 O         2.8783942717      -10.5994673893       -9.7602907507
 C         2.1636356705      -11.8926149670       -7.8318369081
 C         1.1025745370      -12.3547209019       -8.8865330518
 C        -0.0898654813      -11.3710171865       -9.1609762316
 O        -0.2096571573      -10.4331791427       -8.4012755725
 C        -0.8858096957      -11.3266399195      -10.6116474278
 C        -2.2350636801      -10.7294105119      -10.2737509543
 O        -2.4614864103       -9.4754284111      -10.2263217559
 C        -3.3306511539      -11.6798244238       -9.8496076394
 C        -4.5651316070      -10.8190836152       -9.2792495665
 C        -4.4782084082      -10.6432615801       -7.6775647463
 O        -3.5185785879      -10.0337213641       -7.1850724341
 C        -5.6819065607      -11.1158037339       -6.8521944395
 C        -6.9982411106      -10.7608182191       -7.5994499413
 O        -7.4591814814      -11.5794187054       -8.3554118138
 C        -7.5643454893       -9.3489217051       -7.4395252053
 C        -8.5254220682       -8.9219960990       -8.5287604887
 C        -7.7227113788       -8.1909118175       -9.6301546428
 O        -6.6459514188       -7.6776217748       -9.5284345262
 C        -8.5665453765       -7.6322254478      -10.8104485619
 C        -9.0793502984       -6.1626864551      -10.3151560214
 O        -9.4026550903       -6.0816285606       -9.1383817926
 C        -9.4912320910       -5.1292018120      -11.3280147122
 C       -10.9477826200       -4.5546220067      -11.1639553849
 C       -11.4793306612       -4.1487664801      -12.5852347658
 O       -10.6537371821       -4.2036411121      -13.4752316222
 C       -13.1129942634       -4.0756383657      -12.8651805074
 C       -13.9494945091       -5.2370227118      -12.1439972024
 O       -13.4873771071       -5.9156771353      -11.2759298405
 C       -15.4489031379       -5.2198093007      -12.5993739952
 C       -13.4399354621       -2.6738638782      -12.2175111995
 C       -13.3958975342       -4.1615193551      -14.3511681422
 C        -7.5891757583       -7.4179762711      -11.9725921137
 C        -9.6746301444       -8.6452216869      -11.2091366803
 C        -5.5179715776      -12.5972159968       -6.6468078352
 C        -5.6914570938      -10.4851700449       -5.4479835088
 C        -0.0307640449      -10.5045963490      -11.6656601286
 C        -1.0491288456      -12.7173253778      -11.2180326570
 C         4.8827040804       -9.0777299512       -8.7120341366
 C         5.2208985330      -10.9148580667       -6.9139277140
 C        -0.0354201038       -5.2857107479       -4.8457187985
 C        -1.4892335285       -7.4526780291       -5.0249505108
 C        -4.0437265279       -2.7180357782      -10.3837305678
 C        -1.6884758805       -1.9391513800      -10.9054504906
 C        -0.4277644986        3.5277850807       -9.3450140092
 C        -1.5845028327        3.9818082758       -7.1716777237
 C         1.5025524606       10.4386410430       -7.1922161717
 C        -1.0048352018       10.7418742188       -7.0826826702
 C         2.6570470187        8.4277570673      -14.5904447877
 C         0.4764745234        9.7180381572      -14.9958134913
 C        -2.8091843450        3.1166919774      -14.7018343463
 C        -2.2425117369        4.7257968026      -16.3945617526
 C        -6.2466163769        9.7349586644      -12.6917218088
 C        -4.7221414322        8.9117811904      -10.6945750171
 H        -8.5779632855        8.1500666208      -12.1945774454
 H        -8.1924101872        8.1050475215      -10.5851950787
 H        -8.3748837384        6.5144274222      -11.4087596171
 H        -4.9087441271        8.6733109868      -15.0375238146
 H        -5.9758074404        7.3826758548      -14.5730857720
 H        -3.0251635498        7.4744756885      -15.2293205487
 H        -4.4190250405        6.8137522238      -16.2536877023
 H        -0.1227757300        4.5186187744      -15.5010920168
 H         0.2767595965        3.8141251971      -13.9409637002
 H         1.8762140586        5.8490873835      -14.8327752662
 H         1.6191344791        5.9136463174      -13.2121276177
 H        -0.1254713893       10.3027378062      -12.0643850607
 H         1.3137645126       10.9589281338      -12.3936503795
 H         1.9155600570       11.1732643290      -10.1663837047
 H         1.9494331638        9.4679773544       -9.9302733355
 H        -0.6820997258        8.1793518037       -9.9464468132
 H        -1.9992868301        7.9016935297       -8.8386014033
 H        -0.2236748953        5.9459200937       -8.0982839648
 H         0.1148256562        6.0516965387       -9.8346346851
 H        -4.2216042162        1.4595035837       -8.4080756184
 H        -2.6654472967        1.3328591965       -7.6963893835
 H        -1.7674552496        0.6178392274       -9.9734464276
 H        -3.4136640961        0.9441666486      -10.6279765158
 H        -2.5238090165       -4.8901934880       -8.9796508308
 H        -3.8093620862       -3.9220275276       -8.1643782565
 H        -3.0434814541       -4.5142559116       -6.0540614824
 H        -1.3705069251       -3.7629497359       -6.4122717157
 H         2.2741921625       -7.3365045103       -5.0828546108
 H         2.1420098957       -5.9347961460       -6.2102715417
 H         3.7533426563       -7.1662362357       -7.4188186535
 H         2.4293676552       -7.8367244691       -8.1624528894
 H         1.6628361342      -11.3973436350       -6.8913345298
 H         2.7136593254      -12.7225211085       -7.4797269737
 H         0.8058219113      -13.2638667574       -8.3296927935
 H         1.6832230218      -12.7136382971       -9.7972332491
 H        -2.9812899082      -12.2508444455       -9.0578456520
 H        -3.6938677492      -12.4326421897      -10.6566426047
 H        -5.4750118460      -11.3819361592       -9.5074344775
 H        -4.5581176326       -9.7989265362       -9.6948292855
 H        -6.6400941953       -8.7578353988       -7.5350363418
 H        -7.9980163069       -9.2457528839       -6.4547476925
 H        -9.2372782602       -8.1647262976       -8.0820774990
 H        -9.1350486904       -9.8095338772       -8.9318213817
 H        -9.3141470680       -5.4945070560      -12.2901225386
 H        -8.7602812561       -4.2677474304      -11.2812694520
 H       -10.9454011947       -3.8245764159      -10.4473662694
 H       -11.5288437486       -5.3313211658      -10.6252306253
 H       -15.7112780088       -4.1728327898      -12.7032392311
 H       -16.0815417844       -5.7069556501      -11.9209699783
 H       -15.4269134218       -5.6920459391      -13.5631158611
 H       -12.5540099840       -2.1707762465      -11.9255471049
 H       -14.0933480788       -2.7403914169      -11.3416949816
 H       -14.0524252462       -2.0878320630      -12.9513617038
 H       -12.9735525918       -3.4591144462      -15.0380565875
 H       -14.5223987868       -4.0965940385      -14.4497205652
 H       -13.1436183846       -5.1779586714      -14.6450495670
 H        -7.9954046773       -6.9989735483      -12.8785627983
 H        -7.1126117179       -8.2922857195      -12.1957777216
 H        -6.8362802053       -6.7432714413      -11.5891481737
 H       -10.5569944078       -8.6464787482      -10.5427362393
 H        -9.2847276058       -9.6377891307      -11.2444173325
 H       -10.1288809397       -8.3689375502      -12.0965819148
 H        -6.4902466173      -13.0058005134       -6.4191887961
 H        -4.8352409600      -12.8653553833       -5.8523706351
 H        -5.1824245647      -13.0503258916       -7.5658597896
 H        -6.3156217050      -11.1145012412       -4.7556471565
 H        -5.9764798557       -9.4658901044       -5.4930331364
 H        -4.6881255983      -10.6203185053       -5.0011042288
 H         1.0478966084      -10.7841660635      -11.7451865379
 H         0.0001049561       -9.4931969363      -11.3838782187
 H        -0.4066572083      -10.5758336685      -12.7124171226
 H         0.0164212483      -13.1132492139      -11.4853246008
 H        -1.6619338225      -12.5215336570      -12.0773410464
 H        -1.3807157348      -13.4373670226      -10.4919529349
 H         4.1882520353       -8.8077361749       -9.5581104201
 H         5.7701089882       -9.6239074668       -9.1289356590
 H         5.2911436007       -8.1874294246       -8.1082044028
 H         4.8007393775      -11.7351871355       -6.3466688259
 H         5.8410579334      -10.3132408502       -6.1834796730
 H         5.8926139738      -11.4885133199       -7.5776959587
 H         0.8367567395       -5.5963331019       -4.2901781546
 H        -0.7382376991       -5.0946610120       -4.0592534117
 H         0.1807295708       -4.4430098911       -5.4236314454
 H        -1.1861145833       -7.5867740366       -3.9750400785
 H        -1.2928991989       -8.5173450318       -5.3123869280
 H        -2.5703059064       -7.2644731815       -4.9723402180
 H        -4.4198078307       -2.1524058492      -11.2536914854
 H        -4.7154315571       -2.7543430221       -9.5482358850
 H        -3.7590122982       -3.7766901687      -10.8231215314
 H        -0.7667837216       -1.4662090900      -10.6071977632
 H        -2.0641140763       -1.3311934269      -11.7647513470
 H        -1.3079446993       -2.9034281278      -11.1700689367
 H        -0.4646778971        3.6865011565      -10.3855760111
 H        -0.1246039492        2.4859884481       -9.1292515842
 H         0.2118743412        4.1964596161       -8.8157081233
 H        -1.4001348207        2.9369522524       -6.8796108877
 H        -2.3140581154        4.4038785212       -6.5257719110
 H        -0.5739818146        4.4658036677       -7.0117083675
 H         1.7419355387       10.2101209716       -6.1367306017
 H         1.8148173967       11.4799686218       -7.3647454580
 H         2.3758553826        9.9214467671       -7.6326904867
 H        -1.9997155053       10.2128422028       -7.1085997760
 H        -1.2701728354       11.6378221368       -7.6866049796
 H        -0.6920060122       11.1332672803       -6.0696336766
 H         3.2386355193        9.3312688923      -14.5122671985
 H         2.6600425863        8.1423591865      -15.6040967755
 H         3.1353142229        7.7224850960      -13.8960585460
 H         0.7413454548        9.8377719687      -16.0711465873
 H         0.8502513967       10.7000076171      -14.5654451730
 H        -0.6514029848        9.7420349200      -14.9046241107
 H        -2.8611729535        2.8398957093      -13.6462286063
 H        -2.0237121331        2.6295830412      -15.3265393136
 H        -3.7509608999        2.9163989460      -15.2786494328
 H        -2.0845662054        5.7103003752      -16.7291545660
 H        -3.1510093193        4.3982458507      -16.9693679012
 H        -1.4378954767        4.0445766996      -16.6792696162
 H        -6.6428743866        9.4840061292      -13.7113684770
 H        -5.7498298480       10.6956705150      -12.6890884163
 H        -7.2109032952        9.9877719194      -12.1717551165
 H        -4.1695837653        8.0017876941      -10.5521923600
 H        -5.5124942442        8.8927976305       -9.9110861092
 H        -4.0782819537        9.8634174927      -10.5473608571
 Na       -3.8187833234        5.2857803616      -11.5021064040
 Na       -1.9593961222       -8.7925504100       -8.2004509265
