232

 C        -7.8489654692        7.7311031575      -11.3375080073
 C        -6.3868285309        7.3713514005      -11.5887289199
 O        -5.9993441048        6.1973460589      -11.5418152517
 C        -5.5230106561        8.5123316721      -12.0151939250
 C        -4.4487457806        8.0451050118      -13.1025269467
 O        -3.3210022835        7.8216719975      -12.7195463308
 C        -4.9858297260        7.7949927688      -14.5408397441
 C        -3.9719868394        6.8587177533      -15.3739950772
 C        -3.8493639761        5.4978255620      -14.6645431761
 O        -4.7004304252        5.0319501765      -13.9190752265
 C        -2.5936400946        4.6639439546      -15.0595465151
 C        -1.3462136999        5.0643954242      -14.0080781287
 O        -1.6560939545        5.3803386733      -12.8783869178
 C         0.0735483524        4.7750410141      -14.4188095168
 C         0.9858266612        5.8867198185      -14.1051491522
 C         0.4254983187        7.2713751944      -14.3803902202
 O        -0.7532470114        7.3020177892      -14.6582907216
 C         1.2696618355        8.5998928148      -14.1283355448
 C         1.3230709328        8.8101869622      -12.5793821744
 O         1.7551169490        7.9022599489      -11.8934454310
 C         1.0275679538       10.1658025401      -11.8129181020
 C         1.4590306618       10.0999908653      -10.3369512989
 C         0.1778920558       10.4911911471       -9.3906733500
 O        -0.8596745788       11.0273394475       -9.8146595541
 C         0.2268785937       10.0446343643       -7.9238939453
 C         0.0151704205        8.3723813703       -7.7420416330
 O         0.3274653891        7.7680772959       -6.7132509189
 C        -0.6442255822        7.7343278613       -8.9528295650
 C        -0.6161301376        6.1894896471       -9.0568710714
 C        -1.9159342018        5.4274424234       -9.1841995699
 O        -2.9044156222        6.0125602524       -9.5754402022
 C        -1.7911424635        3.9279278472       -8.8102281339
 C        -3.0241929264        3.0715877572       -9.2673716540
 O        -3.9011958783        3.3641270303      -10.0856957911
 C        -3.1578304289        1.8011884588       -8.6048821267
 C        -2.7570138799        0.7142595840       -9.6525465108
 C        -3.2533469341       -0.6583720753       -9.2060322113
 O        -4.0878624914       -0.6001541055       -8.3562849825
 C        -2.7307995531       -1.9603007589       -9.8191129552
 C        -2.0715361364       -2.7475472362       -8.6478178264
 O        -0.9920287774       -2.5163329263       -8.1486543037
 C        -2.8759842559       -4.0253103669       -8.0662789160
 C        -2.2518116361       -4.5077215707       -6.8225950965
 C        -1.5159805837       -5.9366574791       -6.9788842678
 O        -1.7042527936       -6.5169992679       -7.9697214997
 C        -0.7015315946       -6.5444012927       -5.8141252290
 C         0.4882541805       -7.2955223646       -6.5139343800
 O         0.1940554165       -8.2159704755       -7.2595703984
 C         1.9337356845       -6.9039599495       -6.3070312440
 C         2.8719730237       -7.6338123759       -7.2183804703
 C         3.3408781061       -9.0768347237       -6.7695558690
 O         3.1777309172       -9.4208789832       -5.6255346809
 C         4.1318240401      -10.0729868207       -7.7118886139
 C         3.0679017142      -10.8240476774       -8.4971561663
 O         2.8893409688      -10.6042006791       -9.7095422831
 C         2.0100559752      -11.8899458309       -7.8414997710
 C         1.0289873401      -12.3824629412       -8.9609901918
 C         0.0527828787      -11.1836529599       -9.2571841625
 O        -0.0795911789      -10.3135737043       -8.4320494581
 C        -0.7639553926      -11.2665936947      -10.5642875515
 C        -2.2091042680      -10.6809567085      -10.2074847715
 O        -2.4302367003       -9.4322669089      -10.2376057594
 C        -3.3317812808      -11.6135161038       -9.6973847912
 C        -4.6159210632      -10.9000290757       -9.1426278185
 C        -4.5072777814      -10.5187728862       -7.7030558677
 O        -3.5281958093      -10.1208740299       -7.1349413468
 C        -5.6862979316      -11.0776679344       -6.8112313652
 C        -7.0571097060      -10.7996916750       -7.5767774907
 O        -7.5397687408      -11.6492898860       -8.2866458985
 C        -7.6519458388       -9.3796265858       -7.3467505413
 C        -8.4891612740       -8.8406402255       -8.5444988744
 C        -7.7606379139       -7.9878458581       -9.5859359594
 O        -6.5925832859       -7.7241613251       -9.4391213799
 C        -8.6212427480       -7.5744775881      -10.8380878931
 C        -9.3506638635       -6.3372222829      -10.2952536346
 O        -9.3372939674       -6.1386453044       -9.0542009987
 C        -9.6502076564       -5.2555680702      -11.3201015198
 C       -11.0153251486       -4.5008860643      -11.1485072032
 C       -11.5117434712       -4.3269510593      -12.5728883009
 O       -10.8119774594       -4.0066404110      -13.5000131815
 C       -13.0378396393       -4.1863132000      -12.8268493090
 C       -13.9375060271       -5.2104016163      -12.1560284321
 O       -13.5047119353       -5.9939233304      -11.3625041628
 C       -15.4086041071       -5.1804763163      -12.4620544898
 C       -13.4835744892       -2.8226806007      -12.1285026448
 C       -13.3938043929       -4.1205139587      -14.3654954776
 C        -7.6981101479       -7.2892537906      -12.0439945326
 C        -9.6902755022       -8.6337768950      -11.2757048714
 C        -5.5194546532      -12.6310258189       -6.7953427977
 C        -5.5943880193      -10.3797543651       -5.3911057031
 C        -0.0634663578      -10.4353302358      -11.5779650961
 C        -0.7863264866      -12.7376698903      -11.1842400427
 C         4.9615765932       -9.1624857294       -8.7786603717
 C         5.1295492171      -10.8090977517       -6.9160136523
 C        -0.2564073666       -5.4040715283       -4.8457723007
 C        -1.5387873945       -7.5954582924       -4.9765593758
 C        -4.0558544143       -2.7355806326      -10.2976608810
 C        -1.5920271688       -1.7069294612      -10.8542385626
 C        -0.4505274119        3.2780766079       -9.3179060106
 C        -1.7536157158        3.9459624465       -7.2090465048
 C         1.4208049492       10.4161231999       -7.0267328857
 C        -1.0055861579       10.7901418542       -7.1561121230
 C         2.6265693499        8.2837940231      -14.7720070933
 C         0.5961586364        9.6927191146      -14.9358952686
 C        -2.8806477560        3.1595235624      -14.5118971244
 C        -2.2549941176        4.7170868822      -16.5801297719
 C        -6.4518040526        9.6328452106      -12.5557504881
 C        -4.6791664958        8.9084733086      -10.7667194249
 H        -8.3516610661        8.1875652759      -12.1905781023
 H        -7.9424726332        8.5446798535      -10.6695523843
 H        -8.3939466941        6.8441067167      -11.0888418432
 H        -5.1951046858        8.7392760739      -15.1367650420
 H        -5.9303000190        7.2724857507      -14.4568069129
 H        -3.0289722398        7.3910131465      -15.3358435229
 H        -4.4918261708        6.8542769438      -16.3406627005
 H         0.0430862404        4.4816775683      -15.4505882301
 H         0.3852954990        3.8765037802      -13.8578084571
 H         1.9734308365        5.7636160107      -14.6193971966
 H         1.3277638462        6.0536393207      -13.1426042050
 H        -0.0281046299       10.4070173292      -11.9085744003
 H         1.3958704939       11.0492835251      -12.4152959019
 H         2.2184745037       10.9328966129      -10.1593947042
 H         1.8429619944        9.2056070538       -9.9289621503
 H        -0.2008596840        8.2521660918       -9.7977225950
 H        -1.7000095377        8.0994465164       -8.9650187349
 H        -0.1722133381        5.7982269709       -8.0917818360
 H         0.0444559649        5.8339361500       -9.8880881248
 H        -4.1400547788        1.6671330721       -8.3760304359
 H        -2.6110240512        1.6659637441       -7.6736083058
 H        -1.6772248856        0.6397269585       -9.8410652961
 H        -3.2688190182        0.9837085191      -10.6001426546
 H        -2.7459699369       -4.6890277388       -8.8189830578
 H        -3.9922015797       -3.7193817922       -7.9806959673
 H        -2.9981997566       -4.7205934272       -6.1090898403
 H        -1.5408563901       -3.7844160160       -6.4504688612
 H         2.1097683951       -7.2103211355       -5.2855035498
 H         1.9664269419       -5.7930841105       -6.3129737783
 H         3.7137050955       -6.9709765473       -7.4471864300
 H         2.4558133562       -7.8039890071       -8.2274250485
 H         1.4368578873      -11.4166229542       -7.1095193198
 H         2.5803816836      -12.6559905780       -7.3066946641
 H         0.5398786921      -13.3441279604       -8.5715762571
 H         1.6505162873      -12.6342622390       -9.8102954823
 H        -2.9482221226      -12.3170491745       -8.8736727839
 H        -3.7287830484      -12.2490916164      -10.5234437818
 H        -5.4466056256      -11.6445971744       -9.1947051661
 H        -4.7893968853      -10.0130798343       -9.8175738639
 H        -6.8412561128       -8.7523220938       -7.0270122558
 H        -8.3205403951       -9.5414313268       -6.5166045114
 H        -9.3636918732       -8.2742503319       -8.0316614355
 H        -8.9476948899       -9.7468371807       -9.0880215968
 H        -9.5990445220       -5.6830823584      -12.3297501587
 H        -8.7314974606       -4.5732138982      -11.3588020053
 H       -10.9475911476       -3.5801691034      -10.5784939820
 H       -11.5783226042       -5.1111592230      -10.4219139747
 H       -15.7391449341       -4.2016478504      -12.6003839540
 H       -15.9716851500       -5.6891184333      -11.6789665437
 H       -15.4096570986       -5.7147863748      -13.4232640677
 H       -12.7336938467       -2.2655534136      -11.6026355411
 H       -14.3367452210       -2.9709533746      -11.4474250435
 H       -14.0350577176       -2.3377423406      -12.9990678345
 H       -12.9044924905       -3.3860665049      -14.9639069115
 H       -14.5137038620       -3.9114622159      -14.4579587638
 H       -13.2227734315       -5.1951357161      -14.7890509189
 H        -8.1880447583       -6.5533947027      -12.7574878101
 H        -7.6178769436       -8.2026401221      -12.6122626586
 H        -6.7114302313       -6.9173867606      -11.7969595232
 H       -10.4920668783       -8.7272193731      -10.5415563230
 H        -9.2849065718       -9.6160743255      -11.3748230781
 H       -10.1812367002       -8.3283488392      -12.1434279041
 H        -6.4004449190      -13.1207101363       -6.3480445751
 H        -4.6854727875      -12.9279091194       -6.2493478149
 H        -5.3778997034      -13.0066664232       -7.8077785510
 H        -6.4375371443      -10.7798364754       -4.7807474717
 H        -5.6219056039       -9.2674393971       -5.4821173205
 H        -4.7400599689      -10.7401386238       -4.8707535814
 H         0.9656529819      -10.7506902048      -11.6953050820
 H        -0.0109077476       -9.3391967618      -11.3699136689
 H        -0.4488477750      -10.6006573288      -12.6144320296
 H         0.2277910149      -13.1507320177      -11.1910845670
 H        -1.1649275057      -12.6059762378      -12.1610903684
 H        -1.3277102770      -13.3871464473      -10.5296750773
 H         4.2931556655       -8.5855671226       -9.4087835106
 H         5.5285230549       -9.8359322399       -9.4501695281
 H         5.5953614867       -8.5292201783       -8.1339882585
 H         4.7891474558      -11.4325692075       -6.0452320028
 H         5.9683161370      -10.1865292954       -6.5559681099
 H         5.5212332227      -11.6059899456       -7.5762443105
 H         0.6102079699       -5.5926426755       -4.2644446435
 H        -1.0856232955       -5.4374889733       -4.1066371798
 H        -0.1472963271       -4.4442014144       -5.3431051396
 H        -0.9612197135       -7.8956553399       -4.0206576481
 H        -1.6700523723       -8.6261390489       -5.3411004772
 H        -2.5461330481       -7.1512979227       -4.5745456239
 H        -4.2211386248       -2.5666255475      -11.4295410672
 H        -4.8334267852       -2.2522115293       -9.6439558229
 H        -3.9996712622       -3.8378075735      -10.1512228338
 H        -0.6819935378       -1.4603752575      -10.3683401615
 H        -1.7554803031       -0.9140577251      -11.6215986124
 H        -1.2651794347       -2.6796464756      -11.2613635009
 H        -0.3177221239        3.3919113466      -10.4205389899
 H        -0.4849263078        2.2248602138       -9.0716652413
 H         0.2853475378        3.7159420351       -8.6715324585
 H        -1.7297836774        2.9366768188       -6.7271734611
 H        -2.5438853190        4.5431639785       -6.7890328616
 H        -0.8236981850        4.4165296735       -6.9515877997
 H         1.5610270512        9.8577706973       -6.0831386959
 H         1.3664360525       11.4607746466       -6.7608542199
 H         2.3977127254       10.3333216374       -7.3901135203
 H        -1.7707540500       10.1289328323       -6.8403129904
 H        -1.5956324061       11.3582543652       -7.8826606065
 H        -0.6917251209       11.4766074926       -6.3860748081
 H         3.2650722323        9.1759591180      -14.5716815559
 H         2.5124894357        8.1731551235      -15.8089811079
 H         3.1066606017        7.4766246420      -14.2612002893
 H         0.7387617874        9.5476799495      -15.9946760596
 H         1.0612745907       10.6843903960      -14.7895297994
 H        -0.5013155164        9.7968218641      -14.7658000495
 H        -3.0418891342        3.2116272475      -13.3823441788
 H        -2.0008200609        2.4884406105      -14.8776759301
 H        -3.7519603069        2.8763780621      -15.0614327306
 H        -1.9268251264        5.7147089091      -16.7899155132
 H        -3.1425754942        4.5729367118      -17.2921749098
 H        -1.5441517725        3.9531093496      -16.8627536236
 H        -7.2652059044        9.3031994133      -13.1862950322
 H        -5.9667162131       10.5231773660      -12.9742727096
 H        -7.0188819211       10.0908428434      -11.7263684483
 H        -3.9747553770        8.0911769670      -10.3970246982
 H        -5.4401518776        9.1530154181       -9.9838303777
 H        -4.1701114132        9.8594254783      -11.0100835433
 Na       -3.9108706887        5.2987754745      -11.5486387870
 Na       -1.9293395305       -8.6379237942       -8.1360100080
