232

 C        -7.8226091600        7.6259702679      -11.0532208457
 C        -6.4352552162        7.2653886854      -11.5857174297
 O        -6.0565497426        6.0945049525      -11.4272374429
 C        -5.5454945056        8.5172890813      -12.0460281712
 C        -4.5408737364        7.9779106914      -13.1165813784
 O        -3.3256516627        7.8405791198      -12.7706630063
 C        -4.9872937396        7.7980418401      -14.5157450860
 C        -3.9940440262        6.8257954858      -15.3882763595
 C        -3.7742107215        5.4718132804      -14.7929637137
 O        -4.6453208661        5.0639355974      -14.0019528485
 C        -2.5704358812        4.5564215915      -15.0632201425
 C        -1.4222371647        5.0274190491      -14.0856965750
 O        -1.7347078009        5.2550377140      -12.9655616581
 C         0.1403713800        4.7683611029      -14.4550222818
 C         1.0130736750        5.8615494002      -13.9435085097
 C         0.4059286035        7.2522022587      -14.3373056113
 O        -0.7777693877        7.2970011610      -14.7078965382
 C         1.3453777115        8.5014913222      -14.1830093697
 C         1.4570389549        8.7393302476      -12.5572889215
 O         1.8289383481        7.8345206875      -11.8357082801
 C         1.1133332678       10.1316257533      -11.8973324140
 C         1.3578460378       10.0576473482      -10.4043409905
 C         0.2224023739       10.4171380143       -9.3993838739
 O        -0.7086656815       10.9666366951      -10.0193848984
 C         0.1656404411        9.9739705561       -7.8141496609
 C        -0.0106231298        8.4553416939       -7.7138328411
 O         0.2760288457        7.7555536619       -6.7566815218
 C        -0.4894562805        7.8108422064       -9.0157782953
 C        -0.3507389005        6.2596256514       -8.9913103426
 C        -1.6590606013        5.4960572154       -9.2653089136
 O        -2.7046558459        6.0377139763       -9.6147439232
 C        -1.7577048014        3.9719024701       -8.8511516479
 C        -3.1015471547        3.1520131343       -9.2639607861
 O        -3.8740019070        3.5207332364      -10.1449568997
 C        -3.1760804431        1.7866214905       -8.6864688604
 C        -2.6016717502        0.7235012468       -9.6590587830
 C        -3.2462754362       -0.6814558579       -9.1846103998
 O        -4.1800154889       -0.6884242854       -8.3666543209
 C        -2.7241844431       -1.9465268888       -9.7498661329
 C        -2.1038981322       -2.7958227444       -8.5557093078
 O        -1.0533159156       -2.4617722246       -8.1537759612
 C        -2.9317295489       -3.9581550388       -7.8563890578
 C        -2.2813365275       -4.6471525168       -6.7281441183
 C        -1.6480160263       -6.0152040803       -6.9489266192
 O        -1.7236048563       -6.5122240364       -8.0891943440
 C        -0.7537953999       -6.5174083669       -5.7367342651
 C         0.4915257625       -7.3048742696       -6.4923682954
 O         0.1768421870       -8.1910855961       -7.2586652009
 C         1.9571998210       -6.8588730056       -6.3990030143
 C         2.9055578521       -7.5674530739       -7.3162950623
 C         3.3926409524       -8.9071628590       -6.7668201022
 O         3.1928920690       -9.1846847279       -5.5994096006
 C         4.1291186089       -9.9142095118       -7.7341337350
 C         2.9513003674      -10.7230205346       -8.5425740901
 O         2.8755684694      -10.6378651172       -9.7017139530
 C         2.0958068942      -11.8117476743       -7.8830456360
 C         1.0413750975      -12.2786986320       -8.8859239381
 C         0.1545677631      -11.1807580547       -9.2977994355
 O        -0.0585520903      -10.2807430123       -8.5360565525
 C        -0.7401763953      -11.2621977767      -10.5861840970
 C        -2.1525031758      -10.6730979277      -10.1648362427
 O        -2.2819980325       -9.5117907959      -10.3070647369
 C        -3.2607604616      -11.5712141542       -9.6410488275
 C        -4.5515893516      -10.9439584205       -9.1573992067
 C        -4.4581359498      -10.6555414635       -7.6848044577
 O        -3.5460327195      -10.0306890040       -7.1588078728
 C        -5.7061029097      -11.0953918819       -6.7735568025
 C        -7.0835267462      -10.7142953610       -7.5178803014
 O        -7.6248613074      -11.5850947666       -8.1800524860
 C        -7.7952767665       -9.3696891777       -7.2585849522
 C        -8.5450621444       -8.9457562755       -8.5434120026
 C        -7.7216321446       -8.1302237075       -9.5653507077
 O        -6.5349672301       -7.7749614837       -9.3830269870
 C        -8.5977058329       -7.6201288721      -10.8377202857
 C        -9.3271566936       -6.3321824705      -10.2011067211
 O        -9.4866587972       -6.1107806735       -9.0470762966
 C        -9.8065676529       -5.3228627930      -11.3092716934
 C       -11.1445239330       -4.4762360399      -11.2585585225
 C       -11.6283695852       -4.1977920425      -12.6163939610
 O       -10.8368498696       -3.9228159278      -13.5168973728
 C       -13.2176969962       -4.1257532359      -12.8097727277
 C       -13.9818870794       -5.3371229263      -12.1061297783
 O       -13.4593514524       -6.2068314081      -11.3714554092
 C       -15.5487150346       -5.2684954833      -12.3495402084
 C       -13.5727790342       -2.7769359250      -12.0925127627
 C       -13.3415053952       -4.0553839461      -14.3511369257
 C        -7.6808261755       -7.2693168951      -12.0820309428
 C        -9.7009794444       -8.5799684286      -11.2677987076
 C        -5.5532029433      -12.6354960258       -6.7709110157
 C        -5.5690170201      -10.4264222680       -5.4019240183
 C        -0.0851750029      -10.1809221369      -11.5270483599
 C        -0.7689491737      -12.7465259358      -11.0743420671
 C         4.9893299834       -9.2502322375       -8.8784924337
 C         4.9611124149      -10.8270171001       -6.9259447630
 C        -0.3466383071       -5.5048901375       -4.7163809564
 C        -1.5573382716       -7.6409517975       -5.0356398386
 C        -3.8856612042       -2.6477658069      -10.4619877889
 C        -1.6842643732       -1.6073015635      -10.8127570035
 C        -0.6008105548        3.0685080546       -9.2949284721
 C        -1.9623460361        4.0072675963       -7.2895457447
 C         1.4649428927       10.3362989685       -6.9701207541
 C        -1.1063318126       10.6047130167       -7.1943929686
 C         2.7387675592        8.2573176795      -14.8362855756
 C         0.6430473155        9.7829202749      -14.8217532051
 C        -2.9238830198        3.1666876300      -14.4730609053
 C        -2.2257430275        4.7060367819      -16.5078789443
 C        -6.3530893447        9.7717155302      -12.5025965321
 C        -4.7040044286        9.0482541154      -10.8100635381
 H        -8.5602803343        7.7583185287      -11.8243843858
 H        -7.7384197329        8.6941902074      -10.8082542701
 H        -8.2560623853        6.9460259627      -10.3520964095
 H        -5.1246785167        8.7867947987      -15.0448382745
 H        -5.9871644565        7.3012384951      -14.5047898710
 H        -3.0370338378        7.3318251346      -15.3860131473
 H        -4.5842118521        6.9047005485      -16.3078095428
 H         0.2767224693        4.5297359730      -15.5005739878
 H         0.2830474887        3.8822938574      -13.9126541286
 H         2.0284802756        5.8996932190      -14.3891586691
 H         1.2776649916        5.9725359657      -12.9029465216
 H         0.0622817284       10.4067927147      -12.2047015922
 H         1.6021736926       10.9736450469      -12.4767675509
 H         2.2617126948       10.6593274067      -10.1651381721
 H         1.5826469869        9.0229845794      -10.0369435290
 H        -0.0651078147        8.2708414799       -9.8771582247
 H        -1.5595857983        8.0577118433       -9.0860443812
 H         0.2095757313        5.8765758730       -8.0439111314
 H         0.2146690318        5.9367732565       -9.8454258528
 H        -4.1621333000        1.4327170052       -8.2966220320
 H        -2.4869049127        1.7403037006       -7.8710466584
 H        -1.5476882199        0.5577795524       -9.6073993379
 H        -2.9400601031        0.9265557444      -10.7063400020
 H        -3.1987038020       -4.5999009542       -8.6727892823
 H        -3.8186086296       -3.3681567862       -7.5994211422
 H        -2.9433872958       -4.8097380299       -5.9006151698
 H        -1.4542890160       -4.0916708710       -6.4216042410
 H         2.2535781426       -6.9895243892       -5.3815750080
 H         1.9000426453       -5.7730167373       -6.5571909428
 H         3.7465222088       -6.8737351984       -7.4082365643
 H         2.6234290154       -7.7665861085       -8.3812953220
 H         1.6597893091      -11.3916749320       -7.0366856047
 H         2.7613003796      -12.5863989047       -7.4057682258
 H         0.4793312512      -13.1549841848       -8.5293762846
 H         1.6237617611      -12.5379345967       -9.7317860107
 H        -2.8702995918      -12.2904762563       -8.7941862520
 H        -3.5336694823      -12.1876933171      -10.4455243350
 H        -5.4720435584      -11.4974997144       -9.4275686469
 H        -4.4256861959       -9.9535276650       -9.6443029871
 H        -7.0687919417       -8.6422117166       -6.8969523037
 H        -8.4774340804       -9.5882908228       -6.4177173926
 H        -9.3198111500       -8.2668506291       -8.1705093854
 H        -9.0200177041       -9.7816569793       -9.0266232957
 H        -9.7958303739       -5.8651703479      -12.3265956900
 H        -8.9970642319       -4.6209410247      -11.4924219158
 H       -10.8562254724       -3.4865627531      -10.6922952185
 H       -11.7903733345       -4.8363684362      -10.4822198383
 H       -15.7904322035       -4.1986116881      -12.4394630305
 H       -15.9939813103       -5.5989875785      -11.3856433635
 H       -15.8866825904       -5.8217582758      -13.2238960723
 H       -12.6381400807       -2.4254025860      -11.5111123302
 H       -14.3212758406       -2.9517908088      -11.2999818199
 H       -14.0268184131       -2.0988126000      -12.7355509162
 H       -12.4595686493       -3.3206494671      -14.5793228679
 H       -14.1789608031       -3.5812256826      -14.8147418354
 H       -13.0846409388       -5.0340568597      -14.8002798024
 H        -8.1812083649       -6.4473683968      -12.5863256567
 H        -7.7037662890       -8.1335462951      -12.8870864433
 H        -6.6394194216       -6.9346495060      -11.8752466592
 H       -10.3720682837       -8.8752151357      -10.5133510671
 H        -9.2559853179       -9.5281000387      -11.5766319525
 H       -10.3094935841       -8.1470015275      -12.1466248822
 H        -6.1030331940      -13.1696421539       -6.0217454811
 H        -4.4827544598      -12.7982930631       -6.5063299957
 H        -5.6845047861      -13.0720953406       -7.7478961106
 H        -6.4943531511      -10.5072345642       -4.8730894141
 H        -5.2610368395       -9.3547957159       -5.5260208742
 H        -4.8359501981      -11.0011071485       -4.8427510214
 H         0.9521912554      -10.4355892908      -11.7481140764
 H        -0.0987131814       -9.1281068607      -11.1154493049
 H        -0.4733990976      -10.1863938376      -12.5333205979
 H         0.1872521928      -13.0330885888      -11.1226741637
 H        -1.1679664052      -12.8275826915      -12.0772121255
 H        -1.2431649173      -13.3311030278      -10.2834730175
 H         4.5291776623       -8.4517204198       -9.3953949696
 H         5.0297323804      -10.0545677279       -9.6202984512
 H         5.9059361016       -8.9746115774       -8.4111112504
 H         4.4699572754      -11.1055173178       -5.9619454779
 H         5.9120928109      -10.4371612226       -6.6419183020
 H         5.0827316252      -11.8251220955       -7.3740236306
 H         0.1934294178       -6.0937939010       -3.9431581883
 H        -1.2309485694       -5.1225410210       -4.2006963860
 H         0.3742092796       -4.7355748716       -5.1371753221
 H        -1.0043413910       -8.3981179215       -4.4251031930
 H        -2.0418016173       -8.3537473037       -5.7330725732
 H        -2.3444145951       -7.2198730678       -4.3626677318
 H        -3.7979709955       -2.3219820477      -11.5113651955
 H        -4.8313791512       -2.2279442462       -9.9664698892
 H        -3.8388026973       -3.6917608730      -10.3988222159
 H        -0.6838093260       -1.3717271481      -10.3745527475
 H        -1.9733339813       -0.7871774543      -11.4153691197
 H        -1.4044509869       -2.4717406900      -11.4306567335
 H        -0.6081147757        3.0482805789      -10.4093589228
 H        -0.8922420923        2.0903172942       -8.9517896608
 H         0.3396049080        3.2796742926       -8.7774989619
 H        -1.9738842582        3.0159932649       -6.8769845730
 H        -2.9747419607        4.4835520109       -7.1399358402
 H        -1.2673254141        4.6274059689       -6.7981251752
 H         1.8364503653        9.7524418871       -6.1842709670
 H         1.4754360824       11.3484598267       -6.5310635788
 H         2.3357823934       10.3192183605       -7.5976078615
 H        -1.6198363960        9.9546031232       -6.5501436536
 H        -1.8530095698       10.7304823571       -7.9338386701
 H        -0.9492763716       11.5236706627       -6.7401343845
 H         3.1813951320        9.2252093948      -14.6441004337
 H         2.7270816557        8.0542942173      -15.9457529627
 H         3.3329039927        7.5586428406      -14.2780047041
 H         0.4683178838        9.5670883624      -15.8545726351
 H         1.2532992989       10.6398604202      -14.8733866519
 H        -0.2805484588       10.0682177070      -14.4074449491
 H        -3.2577025344        3.4133094021      -13.4288375727
 H        -2.0212634921        2.5699662725      -14.4586549202
 H        -3.7103958344        2.7431658806      -15.1117957558
 H        -1.7936848232        5.7460235202      -16.6978123700
 H        -3.0938957980        4.6817705645      -17.1120465587
 H        -1.6580449007        3.8531627556      -16.9019031657
 H        -7.3190352086        9.5217863096      -12.8612834464
 H        -5.8279063715       10.4665655987      -13.1593876686
 H        -6.6188087718       10.4098192165      -11.7002457349
 H        -4.0139137589        8.3269941772      -10.2918106356
 H        -5.3603876790        9.5614268793      -10.1017490427
 H        -4.1737539336        9.8077060725      -11.2995720321
 Na       -3.9139394105        5.3355849511      -11.7147131540
 Na       -1.8690022365       -8.6864183815       -8.0935158812
