232

 C       -21.4894628307       -7.4313415932       -2.5056395699
 C       -20.9004901396       -6.1379033562       -3.0380614222
 O       -20.3659744573       -5.4198446920       -2.2412509447
 C       -20.9812521121       -5.8780107487       -4.5481673302
 C       -20.0095177386       -4.7099237623       -4.9974531268
 O       -19.8211482994       -3.7529649644       -4.2370628321
 C       -19.5473538414       -4.5052456763       -6.4093602345
 C       -18.0023093029       -4.7603307100       -6.5790469339
 C       -17.2709236137       -4.2794185037       -5.3861239302
 O       -17.2857492080       -5.0773359262       -4.4291261508
 C       -16.5307558911       -2.9486428605       -5.2543431345
 C       -16.6676055367       -2.5843125932       -3.7368601438
 O       -17.7191329505       -2.1686554353       -3.2931584149
 C       -15.3887774996       -2.8298394858       -2.8702726491
 C       -15.5794937792       -2.3873031642       -1.4209920558
 C       -16.0888263190       -3.4848102964       -0.4342315943
 O       -17.0203497828       -4.1883875341       -0.7611402536
 C       -15.3259781531       -3.7788477332        0.8482268499
 C       -13.7597296769       -4.2031438201        0.5221874015
 O       -12.7747434360       -3.5461838164        0.7881282888
 C       -13.7559956561       -5.4508061678       -0.4829123166
 C       -12.4633480046       -5.5291563432       -1.2456392664
 C       -12.6518301009       -6.1395786112       -2.6911482086
 O       -13.4346725872       -5.5997649804       -3.3886893545
 C       -11.6861742890       -7.3492470791       -3.3592699185
 C       -10.4587315213       -6.6021673297       -3.9954884908
 O       -10.4166300364       -5.4080533983       -4.1126750353
 C        -9.4048361734       -7.5075730296       -4.8477294258
 C        -7.9708868557       -7.3512740510       -4.1744010286
 C        -7.2806866765       -5.9528085280       -4.5522085257
 O        -7.2673482593       -5.4827911630       -5.6705092773
 C        -6.3825518174       -5.2012621733       -3.4559155138
 C        -4.9294853839       -5.8927764724       -3.7305690526
 O        -4.5271280697       -6.7889882465       -3.0746114480
 C        -4.2027415747       -5.5714636149       -5.0770098856
 C        -2.6782792437       -5.7466581578       -5.1547856834
 C        -2.0087371631       -4.3147147152       -5.1577005777
 O        -2.6091309991       -3.2767753174       -5.0431431160
 C        -0.4974493072       -4.1586767806       -5.5059482721
 C        -0.4951850148       -4.5909906072       -6.9756429183
 O        -0.7682083731       -5.7264981887       -7.3011562435
 C        -0.0335154820       -3.5649237121       -8.0514936359
 C         0.0832261853       -4.1776745071       -9.4684852299
 C         1.5896271546       -4.5614252030       -9.8514076815
 O         2.4855210184       -4.4976208471       -9.0566633330
 C         1.6623283673       -5.0621792292      -11.3540385477
 C         1.6519792037       -3.7748283745      -12.2105170818
 O         0.7468410152       -3.4220772372      -12.9226238898
 C         2.9346973291       -2.9272096485      -12.1053783024
 C         2.6402354734       -1.6736754478      -13.0761742336
 C         3.9864132268       -0.8145856189      -13.0853197855
 O         4.2592699899       -0.0777094000      -12.1426675646
 C         4.9514852848       -1.0613452271      -14.2548115924
 C         4.5599301817        0.1362146982      -15.2020688858
 O         4.4299979286       -0.1355985558      -16.3996133820
 C         4.1444554826        1.6129742299      -14.6667175636
 C         5.0295605655        2.3041342946      -13.6687066828
 C         6.4694153958        2.7328672083      -14.0595030168
 O         6.9818466451        2.4112517809      -15.0988956416
 C         7.1925429171        3.8092420492      -13.2564221307
 C         6.4399944944        5.1734850982      -13.8513654358
 O         5.5318323868        5.7089215984      -13.2441383418
 C         7.0525010331        5.5392375827      -15.1406507602
 C         6.2355498155        6.5388783279      -16.0112616259
 C         5.8772447717        6.1018374401      -17.4114917656
 O         6.1539872937        4.9745222259      -17.8535444636
 C         5.3337792235        7.0727224693      -18.3387552350
 C         6.5508760504        7.3847571993      -19.4179650979
 O         7.1567793042        8.4012739662      -19.2440144123
 C         6.7964592538        6.3909496484      -20.4757887379
 C         8.0078675480        6.4743650045      -21.3634909847
 C         8.0884746658        5.1315331043      -22.3804769087
 O         7.1383799395        4.5583250945      -22.8162077529
 C         9.5130372845        4.6142310819      -22.9964944889
 C         9.4423403174        3.0973648081      -22.6189590487
 O         9.6164634548        2.2787656971      -23.4798448857
 C         9.2226248633        2.8919283631      -21.0877037842
 C         8.9358640826        1.3226203329      -20.7896512044
 C         8.1919984243        1.0494915024      -19.5379565114
 O         8.0245466805        2.0238240840      -18.8057975305
 C         7.4202223149       -0.2816079819      -19.2311037973
 C         5.8713744209       -0.1282037424      -19.5264931643
 O         5.2720414966        0.7617541501      -18.9591746738
 C         5.2977838594       -1.1658049755      -20.4701343677
 C         8.1924596868       -1.4537312746      -19.8463800047
 C         7.7185454104       -0.5737389259      -17.6698110585
 C         9.4461993311        4.9407231856      -24.4508754591
 C        10.6951831495        5.3712406084      -22.2928227340
 C         4.0320885105        6.5043477452      -19.0029432230
 C         5.0941851817        8.4625373179      -17.7038030023
 C         6.6148584535        3.8724174229      -11.7958859231
 C         8.6836182683        3.8312820228      -13.2864172875
 C         6.3932226004       -0.9450712314      -13.8001049960
 C         4.7165246021       -2.4350928866      -14.9438938572
 C         2.9489532930       -6.0016396515      -11.3709921804
 C         0.4646493965       -5.8864063444      -11.7129007264
 C         0.0178696028       -2.7762761088       -5.2965071704
 C         0.3717559453       -5.1889930148       -4.8174705856
 C        -6.4649202556       -3.7049110494       -3.7980145768
 C        -6.7817728317       -5.4868212799       -2.0215002450
 C       -11.3692638394       -8.4472726175       -2.2855355454
 C       -12.5269605341       -7.8218805111       -4.5523080353
 C       -15.1832208253       -2.5511015409        1.7302305603
 C       -15.8799818326       -5.0531202609        1.6192560613
 C       -15.0221758504       -3.0148188355       -5.6902062905
 C       -17.1442849969       -1.6384332228       -6.0066298852
 C       -20.7723147941       -7.1840993177       -5.3337727614
 C       -22.4968511034       -5.4795975522       -4.7611167294
 H       -22.2699959105       -7.8039343412       -3.1190680062
 H       -21.7479354651       -7.2104121791       -1.5495319810
 H       -20.5967913876       -8.0287308099       -2.4553850383
 H       -19.8526560545       -3.4947141626       -6.7944692967
 H       -20.0906057069       -5.2152369487       -7.0443463372
 H       -17.6938429060       -4.3281279194       -7.5252580540
 H       -17.7251174905       -5.8576511455       -6.6657596360
 H       -14.5957492943       -2.2684796099       -3.2747121725
 H       -15.0180609873       -3.9066079621       -3.0176140159
 H       -16.3185317891       -1.5894509759       -1.4331998051
 H       -14.5808512779       -1.9843422688       -1.0463349826
 H       -14.5625950873       -5.2255419333       -1.2115448066
 H       -13.9630204185       -6.4091521968        0.0237123218
 H       -11.6426117331       -5.9592296171       -0.6226076618
 H       -12.0751468222       -4.5389234229       -1.4382427594
 H        -9.4191206431       -7.1482297735       -5.9262680594
 H        -9.7528310816       -8.5395616769       -4.8339358478
 H        -7.3215045773       -8.1536757138       -4.5139966230
 H        -8.0302092118       -7.3896757028       -3.0449955269
 H        -4.4628382633       -4.5425540505       -5.4520797789
 H        -4.8083363329       -6.1720126903       -5.8304016444
 H        -2.4025677422       -6.2980586099       -6.0154635112
 H        -2.3671852668       -6.3674557231       -4.3439073596
 H         0.9902892927       -3.2342562356       -7.6245404224
 H        -0.6026008988       -2.6895808418       -7.9998990600
 H        -0.1012169267       -3.3095105044      -10.2242537856
 H        -0.6123056683       -4.9595232469       -9.7271449187
 H         3.7964306637       -3.6206849935      -12.3275807755
 H         3.1260420491       -2.6482174733      -11.0764986223
 H         1.8169384773       -1.2826050951      -12.5518793051
 H         2.4136570374       -1.9426115394      -14.0793023386
 H         3.1590952896        1.5428476671      -14.1748405277
 H         3.7343977002        2.2399620898      -15.5042264163
 H         5.1424746229        1.6331065765      -12.8500759818
 H         4.5573363447        3.1616206781      -13.2779773287
 H         7.2586144818        4.7094119138      -15.8234355411
 H         8.0173815390        5.9921367932      -14.8491350235
 H         6.8452601805        7.3928771346      -16.0936795241
 H         5.3803502078        6.8704567102      -15.4892482549
 H         5.8223789744        6.3894931099      -21.0493108146
 H         6.7841531674        5.4033920550      -19.9503274194
 H         8.9100513225        6.6991946678      -20.6978395651
 H         7.7917671808        7.3121346169      -21.9769263519
 H         8.4009333146        3.6117631910      -20.8433964831
 H        10.1836113295        3.0901163468      -20.5438106323
 H         9.9615764935        0.7665770116      -20.8354445885
 H         8.3258978119        0.8373581754      -21.5887761879
 H         5.4635962057       -2.2244719250      -20.1785838830
 H         5.9110530591       -1.0553721153      -21.3474096599
 H         4.2788219827       -1.0076881649      -20.7476289459
 H         7.6463341642       -2.2869993426      -19.5758026801
 H         9.2715794608       -1.5601553853      -19.5028202533
 H         8.2136686049       -1.3378260125      -20.8848678187
 H         7.9333786480       -1.5976593262      -17.5078535762
 H         6.8682870652       -0.3832820940      -17.0161707891
 H         8.5575211592       -0.0930141291      -17.2392960971
 H         9.6006382442        3.9622974043      -25.0829746955
 H        10.4350833063        5.4832947612      -24.6032045408
 H         8.5529360557        5.4049622331      -24.7973369605
 H        11.6429680372        4.9491359000      -22.5719285381
 H        10.6009613184        5.2846721317      -21.2631668123
 H        10.7359676792        6.4073250598      -22.5953764532
 H         3.3602348824        6.1015749912      -18.1925071618
 H         4.2350201255        5.6453371076      -19.6036472118
 H         3.4288871022        7.3298544170      -19.5627109117
 H         6.1004947097        8.7448399215      -17.2910244217
 H         4.2619140267        8.4015486802      -17.0250768567
 H         4.7819915184        9.1652244412      -18.4817888703
 H         7.1942751340        4.6433631235      -11.3608135630
 H         6.6965370862        2.9486438412      -11.1670382758
 H         5.5593587251        4.1821345835      -11.9045238879
 H         9.0110485176        2.8332610102      -13.1922549871
 H         9.1167686323        4.5463100364      -12.6031750613
 H         8.8141719581        4.3408103049      -14.2222986985
 H         6.7184896738        0.0547754491      -13.6714123903
 H         7.1432007740       -1.3475805563      -14.5001739759
 H         6.6074749407       -1.3759011350      -12.8435984510
 H         4.6858287671       -3.3022057794      -14.3080357360
 H         5.4423309457       -2.5597441138      -15.6931505055
 H         3.8326446468       -2.5130329254      -15.5808735087
 H         2.6557719796       -7.0852679195      -11.1161196492
 H         3.7640970930       -5.7202029572      -10.7518276244
 H         3.3951999168       -5.9291638931      -12.3705703047
 H        -0.3898707184       -5.1619411282      -11.5534473011
 H         0.2874560703       -6.8126806684      -11.1462069454
 H         0.5054730180       -5.9820403777      -12.8062886395
 H        -0.1414081400       -2.4156149812       -4.2520445202
 H        -0.5674850959       -2.1561698091       -5.9481956773
 H         1.0025739495       -2.5478433841       -5.5293709607
 H         1.3616033142       -5.2213821448       -5.2177064851
 H        -0.0067031988       -6.1957781324       -4.8576853435
 H         0.5979598440       -4.8123428196       -3.8541940640
 H        -6.1955723031       -3.6139252598       -4.7968121489
 H        -5.7347506215       -3.1118002919       -3.3057628904
 H        -7.4270659374       -3.2642025454       -3.6361855756
 H        -7.7850794589       -5.2134620617       -1.7942132787
 H        -6.1175222156       -5.0301011295       -1.2727691190
 H        -6.7372634786       -6.5316772874       -1.7911848060
 H       -12.1920915779       -9.0443784177       -1.9296536506
 H       -10.9560785966       -8.0257561108       -1.4200000761
 H       -10.6616022952       -9.0956918973       -2.8545472999
 H       -13.5041844585       -8.2592680782       -4.1588034010
 H       -12.0711097348       -8.6522882302       -5.1420116561
 H       -12.7605197145       -6.9714730320       -5.1359091310
 H       -14.5954679413       -2.7296506099        2.6026418735
 H       -16.1698190742       -2.2033771814        1.9973905621
 H       -14.6705068949       -1.7158331878        1.2199007623
 H       -16.5925772820       -5.6018342548        1.0440819292
 H       -16.3731202476       -4.7125268801        2.5008844935
 H       -15.0345040013       -5.6351845374        1.9080270290
 H       -14.8577612293       -2.8806834582       -6.7375045538
 H       -14.5438019320       -3.9627766098       -5.3374736800
 H       -14.4938108181       -2.3332638814       -5.1006560461
 H       -18.3209649491       -1.8656586276       -6.0363155033
 H       -16.8777902266       -1.6092988121       -7.0663754301
 H       -16.7246284286       -0.8078401918       -5.4530917252
 H       -19.8486335590       -7.7347922969       -5.1636661008
 H       -21.0141867233       -7.2159865467       -6.4549979112
 H       -21.4750779633       -7.8999117374       -5.0150819613
 H       -22.6007109217       -5.4094772859       -5.8366687683
 H       -22.8123818409       -4.5017902480       -4.2756222876
 H       -23.1717482457       -6.2484567559       -4.2999111909
 Na      -18.5451987424       -4.0151743721       -2.3172318950
 Na        6.3278100467        2.4176268102      -17.5577771900
