232

 C        -7.8927902294        7.5099544024      -10.7129344257
 C        -6.4507886468        7.3534449394      -11.3663492024
 O        -6.0753024294        6.2242905439      -11.4072922135
 C        -5.5510273455        8.5835212047      -12.0108291150
 C        -4.5215325324        7.9468376184      -13.1240561508
 O        -3.3708564975        7.7480263049      -12.8294315851
 C        -5.0094299311        7.7185571098      -14.6204214115
 C        -3.9540407861        6.8991594580      -15.4066969987
 C        -3.8537547756        5.5621114107      -14.6977867236
 O        -4.7375625346        5.1007018523      -13.9885447067
 C        -2.5693516611        4.5840121983      -15.0560649567
 C        -1.4829290420        4.9076130868      -14.0170664986
 O        -1.6818889585        5.1868106164      -12.8312939650
 C         0.0340805031        4.7734202342      -14.4676399210
 C         0.9445680963        5.8203382641      -13.8409821669
 C         0.4331196218        7.2881809571      -14.2849368029
 O        -0.6566775638        7.3657568768      -14.7908567723
 C         1.3581977085        8.5268665283      -14.0677889036
 C         1.5685349856        8.7024057035      -12.5558473168
 O         1.9118304047        7.6966230276      -11.9638836223
 C         1.2789685996        9.9477175548      -11.8261844430
 C         1.6065911548       10.0078768452      -10.3662360458
 C         0.2518097599       10.3672340778       -9.4724641513
 O        -0.6909824671       10.9086142489       -9.9079211343
 C         0.1491278296        9.9986371943       -7.9900812336
 C         0.0654924037        8.4198264675       -7.8729060505
 O         0.2197147865        7.8935625735       -6.8297525505
 C        -0.5522753435        7.6379545134       -9.1600276511
 C        -0.2096380671        6.1466196647       -9.0074197060
 C        -1.5405893373        5.4784736236       -9.3643368324
 O        -2.4599819804        6.1541171862       -9.7574020772
 C        -1.8583760946        3.9767014764       -8.7699369319
 C        -3.0036280872        3.2770854847       -9.4432117306
 O        -3.8045451761        3.7244181443      -10.2041427095
 C        -3.3007971338        1.8070441656       -8.8055219432
 C        -2.6993677261        0.6505678191       -9.5277105056
 C        -3.3747948469       -0.7280853549       -9.0806127106
 O        -4.3209749057       -0.7549091316       -8.3245786116
 C        -2.7153744628       -2.0435467645       -9.8316244768
 C        -2.1290513524       -2.8319497258       -8.5333221083
 O        -1.0520515035       -2.4914376508       -8.0711585487
 C        -3.0466666554       -3.8265783282       -7.7387299365
 C        -2.2834597026       -4.4754075170       -6.5750916073
 C        -1.6078903263       -5.8399180657       -6.9522173035
 O        -1.8404095250       -6.4013866016       -8.0550105839
 C        -0.7443880257       -6.6054499874       -5.7499624205
 C         0.4525576321       -7.2386224157       -6.5195149851
 O         0.3187971753       -8.2014470460       -7.1982321229
 C         1.9615359170       -6.6299310282       -6.3618444426
 C         2.8756804901       -7.3924077609       -7.4183864185
 C         3.3825427280       -8.7258993239       -6.8164356337
 O         3.2345751085       -8.9894425062       -5.6539783495
 C         4.0649223881       -9.8937706115       -7.7980476715
 C         2.9637610459      -10.6782486866       -8.5908788446
 O         2.8648752098      -10.5229493642       -9.7958501411
 C         2.2022784393      -11.7349659926       -7.8321249100
 C         1.2034772132      -12.3138788798       -8.7348257279
 C         0.1052548879      -11.2471908816       -9.1622542993
 O        -0.0477635564      -10.2070705649       -8.5429389261
 C        -0.6895087164      -11.2591436014      -10.6155876405
 C        -2.0897886043      -10.6939709341      -10.2943839281
 O        -2.3165383448       -9.5212663234      -10.2703747257
 C        -3.0918775329      -11.6776188890       -9.7264705457
 C        -4.3948283187      -10.8753226213       -9.2497738167
 C        -4.5103386242      -10.5345718208       -7.7398811289
 O        -3.5936558350       -9.9317073587       -7.1283595838
 C        -5.6449148936      -11.0919087317       -6.7563746339
 C        -7.1214773677      -10.7362058862       -7.4010695378
 O        -7.6754653620      -11.5213772803       -8.1314436589
 C        -7.8056288554       -9.3308781465       -7.2441669879
 C        -8.5700795426       -9.0020022947       -8.5327860561
 C        -7.7612148080       -8.2641845745       -9.5656620016
 O        -6.5923725701       -7.9479683418       -9.3912388748
 C        -8.5958604523       -7.5943735995      -10.7571228529
 C        -9.3421047532       -6.2173698998      -10.2696726491
 O        -9.6664243964       -6.1370872565       -9.1179022994
 C        -9.8779234086       -5.3193745318      -11.3792084540
 C       -11.0899455698       -4.4999808463      -11.1271659024
 C       -11.6493448712       -4.0948712433      -12.5016373057
 O       -10.9274412020       -3.9149597421      -13.4830337528
 C       -13.1787237798       -4.0374897659      -12.8061026138
 C       -14.0345030233       -5.3146378665      -12.1140117943
 O       -13.4839223417       -6.2491773314      -11.5980462002
 C       -15.6099239567       -5.3996074982      -12.2006782156
 C       -13.7307568699       -2.7709333297      -12.0928896761
 C       -13.5096719269       -4.0135051020      -14.3155117881
 C        -7.5801465190       -7.3263318758      -11.8960108903
 C        -9.6605985946       -8.5045640076      -11.2000933737
 C        -5.6138345572      -12.6499338288       -6.6506182655
 C        -5.5737846017      -10.5195232128       -5.3873740274
 C        -0.0705332218      -10.1644768335      -11.5358328812
 C        -0.8260735257      -12.6691809116      -11.1426320798
 C         4.9960724183       -9.2631365214       -8.8774366049
 C         4.7894370042      -10.9861988660       -6.8767843540
 C        -0.3341095582       -5.6443396310       -4.6532562600
 C        -1.6294565958       -7.7646847228       -5.1548170828
 C        -3.8804082850       -2.7027557930      -10.7285138758
 C        -1.5398477874       -1.7570412163      -10.8311976663
 C        -0.5472201788        3.0924444893       -9.1530621148
 C        -2.0232515283        4.2277917911       -7.2264509047
 C         1.4230180992       10.3592336822       -7.1535885999
 C        -1.1696503616       10.4453050739       -7.2519701095
 C         2.7233812995        8.3271655454      -14.7315664786
 C         0.6801565294        9.7612557512      -14.6985778653
 C        -2.9085159165        3.0785404507      -14.6730476637
 C        -2.1042503461        4.5851805576      -16.5660604814
 C        -6.2551978882        9.7172937425      -12.5977756263
 C        -4.7145925048        9.0376102165      -10.7785200834
 H        -8.6275361175        7.1360628984      -11.4351857601
 H        -8.2076500357        8.5561055354      -10.6830328817
 H        -8.0502406536        6.8573610920       -9.8351493441
 H        -5.1646146151        8.6799205604      -15.0710653398
 H        -5.9636452689        7.1315358393      -14.7375383342
 H        -3.0007793158        7.4540790232      -15.3213770445
 H        -4.4225946436        6.8654495271      -16.3820722443
 H        -0.0001003138        4.7843444968      -15.5586035003
 H         0.2813562462        3.7679209836      -14.1501846585
 H         1.9799610672        5.7750542581      -14.0363679462
 H         0.9193769250        5.8443135700      -12.6794532549
 H         0.1920284352       10.2133984130      -12.0320227051
 H         1.6694452018       10.7327180730      -12.4384300809
 H         2.2915906888       10.7980248188      -10.2058591423
 H         2.0332878885        9.0679279173       -9.8839209265
 H        -0.1518274950        8.0753479201      -10.1049526475
 H        -1.6146895253        7.8187873147       -9.1996424642
 H         0.1090873146        5.9421006843       -7.9935910035
 H         0.5800512136        5.8492436501       -9.6974705161
 H        -4.4668250564        1.6543930887       -8.8532209715
 H        -2.9919289849        1.7352608617       -7.7285804768
 H        -1.6173311937        0.4887580571       -9.4731115125
 H        -3.0494678099        0.7104520868      -10.5423952426
 H        -3.5236202482       -4.5433941264       -8.5431915368
 H        -3.7555299453       -3.1405796169       -7.4993079359
 H        -2.9234719549       -4.8458131476       -5.7468383142
 H        -1.5138776375       -3.8093065768       -6.2070665344
 H         2.2814136631       -6.6867841728       -5.2920548804
 H         1.8865497257       -5.5845207050       -6.5813277636
 H         3.7051399185       -6.7148170481       -7.6966208720
 H         2.4122042317       -7.6785481705       -8.3813958187
 H         1.7671445535      -11.2413418287       -6.8323017612
 H         2.9107996858      -12.4213854481       -7.3792989741
 H         0.6280584857      -13.0401162733       -8.2653173303
 H         1.7620854596      -12.7231947324       -9.5987171206
 H        -2.6911581853      -12.1450065597       -8.8926342063
 H        -3.3988757029      -12.4569583011      -10.4222633814
 H        -5.2986017801      -11.3976468982       -9.5133376057
 H        -4.2383743700       -9.9552445600       -9.7815086672
 H        -7.0412766979       -8.5603968376       -6.9640556948
 H        -8.4843143415       -9.4190909767       -6.3572753869
 H        -9.3319756654       -8.3795911633       -8.2516424954
 H        -8.9935600777       -9.8452542195       -8.9593390522
 H       -10.1266859604       -6.0125444480      -12.2028480551
 H        -9.1705216661       -4.7116772666      -11.8837482684
 H       -10.8441365638       -3.8011987559      -10.2885462042
 H       -11.7954409246       -5.0892715676      -10.5234611927
 H       -16.1006928945       -4.3885435848      -12.4166944956
 H       -15.8863940073       -5.7341287744      -11.2002248337
 H       -15.8604714102       -6.1198351942      -12.9815826711
 H       -12.8873414965       -2.4162572180      -11.4998090390
 H       -14.4399154934       -3.0595189212      -11.3137618777
 H       -14.2017853310       -2.0412686804      -12.7124747415
 H       -12.8986946616       -3.2025996472      -14.7582385816
 H       -14.4912189867       -3.5824192154      -14.4301181621
 H       -13.3489020894       -4.9227590826      -14.8051738217
 H        -7.9310212234       -6.5332271517      -12.5473661842
 H        -7.4735990938       -8.2253516784      -12.5215795722
 H        -6.5750292752       -7.0012659180      -11.4630715984
 H       -10.3327136494       -8.9351852875      -10.4147279733
 H        -9.2344694689       -9.4380065233      -11.6600183333
 H       -10.2426136750       -7.9867024547      -12.0143629209
 H        -6.0333906963      -12.8428204427       -5.6728753977
 H        -4.5672171405      -13.0835921776       -6.5393486242
 H        -6.1616187632      -13.2114287212       -7.4019731573
 H        -6.5697708658      -10.4974573167       -4.9500389656
 H        -5.1870033272       -9.5413508047       -5.4377595604
 H        -4.8755883849      -11.1655233384       -4.7940223114
 H         0.9342624665      -10.3239555625      -11.9846234046
 H        -0.0879681850       -9.2505478463      -11.0042530097
 H        -0.6217586142      -10.0267745808      -12.4591536270
 H         0.1691042320      -12.8985184241      -11.6694986081
 H        -1.5526935751      -12.6731353841      -11.9346630888
 H        -1.0556062715      -13.2943307924      -10.2985989075
 H         4.6259501666       -8.3491063803       -9.3140478169
 H         4.8808868310       -9.9882397360       -9.6769552808
 H         5.9652394815       -9.1092569313       -8.3814303813
 H         4.3152025643      -11.0883395376       -5.9435217406
 H         5.7632599057      -10.6234015646       -6.5907406357
 H         4.8858804922      -12.0027419704       -7.2109977250
 H        -0.1632958775       -6.2077368946       -3.6831328015
 H        -1.0392689882       -4.8439006275       -4.4512293731
 H         0.6450406623       -5.2856747562       -4.9824878143
 H        -1.1720283063       -8.5986215030       -4.7441611389
 H        -2.3995776971       -8.2493810625       -5.7734467866
 H        -2.1646116345       -7.3011575104       -4.3915582531
 H        -4.0137541587       -2.0143143257      -11.5099644297
 H        -4.7706419848       -2.7609526560      -10.1788069174
 H        -3.5863183856       -3.7061449027      -11.0909836285
 H        -0.6633382249       -1.2659390560      -10.3466108930
 H        -1.9202801515       -1.0157751972      -11.5122026391
 H        -1.1089370652       -2.5473778023      -11.3991580178
 H        -0.8257255826        2.8090668917      -10.1398395739
 H        -0.3495139275        2.1871684984       -8.5237489011
 H         0.3578770784        3.7217810324       -9.1689615312
 H        -1.7084728576        3.3427629573       -6.7164898059
 H        -3.0629074632        4.4492276112       -6.9964773873
 H        -1.4701986773        5.1625624700       -6.9613316205
 H         1.6156107418        9.7090409287       -6.3059037276
 H         1.5974853170       11.2902731951       -6.6085888479
 H         2.3408053087       10.1206181164       -7.7330302271
 H        -1.2208932082       10.0807765789       -6.2270609620
 H        -2.0390262456       10.0348247489       -7.6558841141
 H        -1.2963944925       11.5105236082       -7.2511985008
 H         3.2382759913        9.2709923983      -14.8268713652
 H         2.5282999526        7.8406261509      -15.7307109561
 H         3.3119093509        7.6118300515      -14.0978324096
 H         0.3391487093        9.5155863763      -15.6837023252
 H         1.3792401686       10.5347382072      -14.8475025517
 H        -0.0892450010       10.2094574706      -14.1472268153
 H        -3.3195144982        3.1173141788      -13.7196661393
 H        -1.9984001714        2.5848015422      -14.5703142234
 H        -3.5769301384        2.6874982956      -15.4732891957
 H        -1.6455471688        5.4907909525      -16.9845869184
 H        -2.9588471749        4.3881342636      -17.1747644229
 H        -1.5895401858        3.6288299133      -16.7777387081
 H        -7.1638602395        9.4547470652      -13.1218440409
 H        -5.5598631384       10.1621411924      -13.2529337625
 H        -6.5312441158       10.5494752015      -12.0056192455
 H        -4.2529438787        8.2085424695      -10.4019096389
 H        -5.2880706998        9.5451140506      -10.0472199223
 H        -3.9619570879        9.7058949754      -11.1856957170
 Na       -3.8012254302        5.4099166023      -11.8677670122
 Na       -1.8303874871       -8.8922487983       -8.1305871284
