232

 C        -7.5928540029        7.7271912119      -10.3022759527
 C        -6.2899585953        7.4209757993      -11.2277540773
 O        -5.8940589271        6.2801093891      -11.2667009502
 C        -5.4989796851        8.5401970516      -11.9954467053
 C        -4.4477343798        7.8989790048      -13.0715739342
 O        -3.3063083653        7.7442612625      -12.7649261980
 C        -4.9375539541        7.7293480370      -14.5294017526
 C        -3.8937406242        6.8752745943      -15.2866240434
 C        -3.8744712667        5.3954990583      -14.7691751212
 O        -4.6597886732        4.9311879111      -13.9617629106
 C        -2.6723319554        4.4771777935      -15.2222561131
 C        -1.5111127970        4.6683182769      -14.0973695646
 O        -1.7583700631        4.5807535970      -12.8970724851
 C         0.0024746216        4.6538831593      -14.5169536250
 C         0.7185649466        5.7892894503      -13.7085062893
 C         0.4948350201        7.2085906673      -14.2336780051
 O        -0.3769745725        7.4097043920      -15.0136588654
 C         1.4726298041        8.5700794935      -13.8743061107
 C         1.8099643045        8.7778295880      -12.3623198075
 O         2.0347909858        7.7978218407      -11.6946265727
 C         1.8956520053       10.1556263961      -11.6541366370
 C         1.8878232959       10.1842065153      -10.1542295167
 C         0.4391175671       10.2994426823       -9.6603726617
 O        -0.4191187086       10.6527463288      -10.4199557616
 C         0.2838315284        9.8971970733       -8.1595120054
 C         0.3026059672        8.3141106143       -8.1426281961
 O         0.4915094688        7.8202835231       -7.0453517219
 C         0.0215703184        7.4233828836       -9.3970715003
 C         0.0258862393        5.7945255822       -9.0953512332
 C        -1.3841282232        5.2955173325       -9.4101141019
 O        -2.1253803150        6.0076490428      -10.1013643930
 C        -1.9444959083        3.9661485577       -8.7324396025
 C        -2.9822500322        3.1089752820       -9.5892858324
 O        -3.4914262854        3.3794224742      -10.6719564404
 C        -3.4037763342        1.7699459977       -8.8918623975
 C        -2.7829196196        0.5733079834       -9.4996419449
 C        -3.5172386104       -0.7799956143       -9.0772611033
 O        -4.6021116423       -0.8371410213       -8.6286131562
 C        -2.6726110065       -2.0907631173       -9.6006382762
 C        -1.9665077793       -2.8094400063       -8.3930573241
 O        -0.7498455726       -2.6721556224       -8.1700867061
 C        -2.9475803484       -3.5989554166       -7.4676461580
 C        -2.2350666519       -4.3296816146       -6.3163591547
 C        -1.7707068148       -5.7575541002       -6.6900816256
 O        -2.1197685317       -6.2672897632       -7.7660480682
 C        -0.7877142266       -6.5226358920       -5.7627295179
 C         0.3671921316       -7.1236472857       -6.6595930100
 O         0.2997128329       -8.1094244030       -7.3037334757
 C         1.7133502566       -6.3224571867       -6.7610470707
 C         2.6350222148       -7.1813225941       -7.6489535007
 C         3.1684693963       -8.4444973913       -6.8360688681
 O         3.1149702034       -8.5224315357       -5.6398860400
 C         3.9969947174       -9.6103318813       -7.6945890468
 C         2.9842691340      -10.3685548335       -8.4961211457
 O         2.6021205851       -9.7684190977       -9.5348375218
 C         2.3662201203      -11.7738087058       -8.1674150851
 C         1.3539775514      -12.2499761920       -9.2286111745
 C         0.0156031654      -11.3454921627       -9.2727268863
 O        -0.3850410653      -10.7151351632       -8.2674654994
 C        -0.7328080309      -11.3499371822      -10.6022333942
 C        -2.1184118004      -10.8038540080      -10.2202937811
 O        -2.3497238067       -9.6275401007      -10.4082023774
 C        -3.1436224381      -11.7874745278       -9.6172560870
 C        -4.4605843448      -11.1029712191       -9.1848583259
 C        -4.4682294995      -10.6008905453       -7.7757699168
 O        -3.6510060848       -9.7215849396       -7.4133076193
 C        -5.6651361729      -11.0762040284       -6.8384372166
 C        -7.0624451592      -10.6104210248       -7.4736498713
 O        -7.5869125213      -11.3694898275       -8.2182519809
 C        -7.8221131749       -9.3658615312       -7.0367699793
 C        -8.6551067441       -8.6011371332       -8.1031357238
 C        -7.8472845694       -8.2746788566       -9.3556381478
 O        -6.7206255787       -8.6614777864       -9.4895214005
 C        -8.6815324238       -7.5931356460      -10.5849521926
 C        -9.5754066484       -6.4559686347      -10.3026683325
 O        -9.8844878322       -6.1881061448       -9.1309970519
 C        -9.9925161731       -5.5106574103      -11.4015169480
 C       -11.2788044885       -4.6128077679      -11.2935631498
 C       -11.9042612505       -4.0277350862      -12.5341811149
 O       -11.2176753987       -3.5381213162      -13.3944151804
 C       -13.5684823611       -4.0827518154      -12.6475980314
 C       -14.1343500758       -5.5191108143      -12.1766703584
 O       -13.3998845081       -6.4524126078      -12.3366257300
 C       -15.6515192126       -5.6553846691      -11.6910550882
 C       -14.0229583048       -2.9785799198      -11.5536436656
 C       -13.9631115397       -3.6386278683      -14.0596943327
 C        -7.6170168448       -7.1926024443      -11.6630694224
 C        -9.4484713988       -8.7798610501      -11.2706753455
 C        -5.4501746549      -12.5639480545       -6.5949901466
 C        -5.4929279688      -10.5343065356       -5.3133007127
 C         0.0128283381      -10.3701504134      -11.5294701761
 C        -0.8391059531      -12.7633664713      -11.2258075867
 C         4.9224726989       -8.9282069484       -8.7431125996
 C         4.7484773144      -10.5158331846       -6.6831184575
 C        -0.1867944090       -5.4494085219       -4.5951539381
 C        -1.5048758339       -7.6604746449       -5.0221732934
 C        -3.6397430214       -2.9679924738      -10.4237277735
 C        -1.6659189964       -1.6167152145      -10.6381584006
 C        -0.8129819600        2.8922710402       -8.5687931740
 C        -2.5850533711        4.4308193065       -7.4232457066
 C         1.4168961259       10.3877689519       -7.2613445511
 C        -1.0758748778       10.4808880413       -7.7469720398
 C         2.7860091359        8.1678744254      -14.6356101922
 C         0.8102671806        9.7785825134      -14.5411529393
 C        -3.0204799021        2.9056232656      -15.1705294605
 C        -2.2800656987        4.8079574927      -16.6589365263
 C        -6.5385275913        9.4609766885      -12.7650984287
 C        -4.6722921244        9.4624271310      -10.9127419098
 H        -7.3694115774        7.1239259466       -9.4155656933
 H        -8.3474262980        7.1952239156      -10.8381816265
 H        -7.8824971008        8.7120405657       -9.9255505150
 H        -5.0887134720        8.7590793437      -14.8440822324
 H        -5.9365028082        7.1794874875      -14.6011022038
 H        -3.0080081851        7.5038666046      -15.1073914333
 H        -4.1734919901        6.8207054297      -16.3410236284
 H         0.1062297953        4.8224581882      -15.5755050294
 H         0.4063189607        3.7382981551      -14.1767741549
 H         1.7567245576        5.6422052702      -13.7508621220
 H         0.4380380745        5.8894485868      -12.6057595748
 H         1.0097099673       10.7271260846      -12.1416548790
 H         2.8061997411       10.6116022978      -12.0863955218
 H         2.3506094359       11.1073929678       -9.8440980240
 H         2.4887853345        9.3387102439       -9.6749588142
 H         0.8329818488        7.7613591288      -10.0872248983
 H        -0.9000465508        7.7953629740       -9.7979614365
 H         0.2990580249        5.5994752324       -8.0484034699
 H         0.7842977177        5.3897016945       -9.8164982226
 H        -4.5124656385        1.7619160638       -8.8299049931
 H        -3.0922069719        1.7173926122       -7.8196297760
 H        -1.7526962840        0.4024619961       -9.1385684050
 H        -2.8272126662        0.6831747689      -10.5576344745
 H        -3.6869812173       -4.2433941000       -8.0920645229
 H        -3.5616984599       -2.8645247093       -7.0432877962
 H        -2.8289064281       -4.3857601119       -5.4343011837
 H        -1.3226863856       -3.8952707113       -6.0621260759
 H         2.0643997132       -5.9308027985       -5.7990490351
 H         1.3521173670       -5.4485130403       -7.2331526767
 H         3.5594047427       -6.6125644059       -7.8523566938
 H         2.1615736165       -7.6056977405       -8.5365894250
 H         2.0271300481      -11.9489131699       -7.0465337448
 H         3.1807162895      -12.4660798372       -8.1122103469
 H         1.1291518873      -13.2451225993       -8.9802388226
 H         1.7587571163      -12.1644768975      -10.2574074386
 H        -2.8039632322      -12.2553266681       -8.7824560863
 H        -3.4917422997      -12.6060164289      -10.3017527402
 H        -5.2994294948      -11.8136272256       -9.3408375720
 H        -4.5385278514      -10.1715202843       -9.7938997941
 H        -7.0709223026       -8.7308784306       -6.5481425781
 H        -8.3966058438       -9.6248699836       -6.1488423443
 H        -9.0289558950       -7.7073257787       -7.6735288698
 H        -9.5416386861       -9.1665409328       -8.3621833812
 H        -9.9520169199       -5.8866307168      -12.4510636728
 H        -9.2197547100       -4.7246128742      -11.4508020758
 H       -10.9774288773       -3.6559240032      -10.7399578671
 H       -12.0241009921       -5.1095478601      -10.5725968851
 H       -16.0554322678       -4.7568670234      -12.1829925281
 H       -15.6646539244       -5.5421682548      -10.6221142126
 H       -16.1482939421       -6.5595931167      -12.0617996654
 H       -13.5920733220       -3.1830850666      -10.6107114114
 H       -15.1059282084       -3.1660344078      -11.4168202499
 H       -13.7679395220       -1.8923495777      -11.8093885118
 H       -13.5550233908       -2.6688487439      -14.2026341571
 H       -15.0858800221       -3.3901169135      -14.1262264196
 H       -13.5985735675       -4.3998075864      -14.7794816725
 H        -8.0466948090       -7.1835479088      -12.7211018756
 H        -6.8209769303       -7.9241597088      -11.6319448166
 H        -7.1999765509       -6.1336340131      -11.5081581748
 H       -10.3370218263       -9.1661130381      -10.7011361322
 H        -8.7708636347       -9.6271704080      -11.2981565446
 H        -9.6228093885       -8.6414732135      -12.2866269436
 H        -6.2475130918      -13.1040501978       -6.1229622215
 H        -4.5431586237      -12.6424387324       -5.9877903048
 H        -5.2964442505      -13.1218176790       -7.4996826307
 H        -6.2457676516      -11.0887051907       -4.7463054831
 H        -5.7138651278       -9.5273212249       -5.1493842627
 H        -4.4255382149      -10.6335592827       -5.0460877205
 H         1.1185077061      -10.5073680704      -11.6546597743
 H        -0.1467218937       -9.3624114677      -11.1995598733
 H        -0.3136186231      -10.3267722148      -12.5915426109
 H         0.1866230366      -13.2297971889      -11.1411594788
 H        -1.0889757934      -12.7205661638      -12.2195232642
 H        -1.6247368369      -13.2605759574      -10.7929344334
 H         4.3354504116       -8.8093312047       -9.6360826010
 H         5.6822882701       -9.6476827654       -8.8999090213
 H         5.2271650195       -7.9385768797       -8.4315215988
 H         3.9665741726      -11.0740282781       -6.1640661553
 H         5.2811420958       -9.9515892561       -5.8610195717
 H         5.4509677892      -11.2708793066       -7.1182962946
 H         0.7719672461       -5.8905122924       -4.2237155744
 H        -0.9052506879       -5.2551496865       -3.7803282971
 H         0.0471840220       -4.4374330292       -4.9069612168
 H        -0.9298175120       -8.2862459576       -4.3148113178
 H        -2.0314128239       -8.3087138458       -5.6939399003
 H        -2.4362353915       -7.3367087164       -4.5352495454
 H        -4.3041813970       -2.3823185533      -11.0503395448
 H        -4.2762018360       -3.5606090232       -9.8441152517
 H        -2.9712324923       -3.7560852424      -10.9113251298
 H        -0.8723527791       -0.9905535961      -10.2285833014
 H        -2.1023168890       -1.1569075485      -11.5343655260
 H        -1.2717816136       -2.5065179092      -11.1174409958
 H        -0.3740930369        2.6983919006       -9.5153233776
 H        -1.1565483810        1.9862769766       -8.0047238625
 H        -0.0091936059        3.3552067260       -7.9844588972
 H        -3.1164940005        3.6440973152       -6.9320221302
 H        -3.0701507503        5.3650671057       -7.4786688642
 H        -1.6366752347        4.6129017415       -6.8328547070
 H         1.1938645488       10.2615169975       -6.1953628982
 H         1.5955848231       11.3892397971       -7.1353326528
 H         2.3363628293        9.8866701781       -7.3732489522
 H        -1.0054581345       10.9274346007       -6.7762936781
 H        -1.9071967476        9.8715850700       -7.7389330452
 H        -1.3820429238       11.2620489381       -8.3990990071
 H         3.5608793191        8.8015821630      -14.2512661026
 H         2.7251579905        8.2611085968      -15.7027525299
 H         2.9774695216        7.1056661924      -14.4280655388
 H         0.5087881830        9.5373199939      -15.5418174169
 H         1.4019723312       10.6665840990      -14.5328178326
 H        -0.0542648861       10.0810753852      -13.9659136904
 H        -2.9346180972        2.6009656530      -14.1594192166
 H        -2.1439466328        2.3959244914      -15.5656382760
 H        -3.9949951855        2.7959188988      -15.6877992640
 H        -1.6461582325        5.6813478509      -16.7070295236
 H        -3.1966686425        5.0262612396      -17.2727060365
 H        -1.7081601153        4.0231746457      -17.2198031832
 H        -7.2141670802        8.9235278773      -13.4587900640
 H        -6.0764739175       10.2732030170      -13.2919183258
 H        -7.2017903253        9.9746304887      -12.0612904797
 H        -3.9857539688        8.7562135951      -10.5023249386
 H        -5.3563341615        9.8266800243      -10.1288653358
 H        -4.0083421179       10.2379849873      -11.4145228643
 Na       -3.8272068565        5.3336651523      -11.8030624791
 Na       -1.8308195482       -8.4661181988       -8.2786336083
