232

 C        -7.4715265801        7.6792695802      -10.3022436322
 C        -6.2286433233        7.5178019043      -11.1242028291
 O        -5.8549857412        6.3377314460      -11.2541311354
 C        -5.4858123266        8.6163922726      -11.9550313144
 C        -4.4625386863        8.0684644980      -12.9615504612
 O        -3.3136711869        7.7726763113      -12.6922133451
 C        -4.9628347298        7.7354928503      -14.4138286845
 C        -3.9226218505        6.8049927002      -15.2529308472
 C        -3.8536615365        5.3685950377      -14.7641175036
 O        -4.6561776890        5.0504946419      -13.9433854356
 C        -2.6244091904        4.4109459102      -15.2904428164
 C        -1.4702105602        4.5887155704      -14.1444838347
 O        -1.8780672082        4.5128520304      -12.9799872310
 C        -0.0254434690        4.8303891860      -14.4771357892
 C         0.8162221238        5.8296003092      -13.6480292650
 C         0.5226237163        7.2905384037      -14.1874549112
 O        -0.3780872096        7.3660153369      -14.9986633570
 C         1.4776239180        8.5335632223      -13.9096441379
 C         1.7985652029        8.7223542028      -12.4134105319
 O         1.9575080243        7.7786243577      -11.6609250117
 C         2.1433935544       10.2660985926      -11.8523911866
 C         2.0662286928       10.2360444525      -10.3056361332
 C         0.5633863230       10.3267930645       -9.7752443222
 O        -0.4009044390       10.5493479341      -10.5356913701
 C         0.3050176288        9.8608141383       -8.2265679974
 C         0.3180439933        8.2007506637       -8.0792417234
 O         0.5789821466        7.7406175054       -6.9668868739
 C         0.0970837022        7.2941103568       -9.2986236444
 C        -0.0487086095        5.7905723030       -8.9743570560
 C        -1.4208343467        5.2427784856       -9.4416099053
 O        -2.1975156586        5.9427628408      -10.0931423692
 C        -1.8637219182        3.9244244073       -8.7749492007
 C        -3.0248737543        3.0365079101       -9.5570942014
 O        -3.4280385341        3.2104944220      -10.7310410525
 C        -3.4512421190        1.7751664152       -8.7911443935
 C        -2.7739813279        0.6032859319       -9.4752185941
 C        -3.4448593538       -0.8130950733       -9.2132172313
 O        -4.5503442950       -0.8521578693       -8.6799238522
 C        -2.6672940659       -2.0358344249       -9.6368819948
 C        -1.9698432847       -2.6857676226       -8.3386224162
 O        -0.7642296147       -2.6910996078       -8.2786050142
 C        -2.8797515147       -3.5128032285       -7.3969170734
 C        -2.1853533844       -4.2981928144       -6.2566192625
 C        -1.7582902613       -5.7399013130       -6.6846519545
 O        -2.1486433416       -6.2595831514       -7.6810724765
 C        -0.7477989938       -6.4953837384       -5.7187618888
 C         0.3100591612       -7.0624481137       -6.6815294599
 O        -0.0058915561       -8.0789500780       -7.3027679967
 C         1.6990798044       -6.3516224469       -6.8619817837
 C         2.6633463021       -7.1718074645       -7.6707008486
 C         3.2419568889       -8.3235160168       -6.8231529376
 O         2.9597105003       -8.4612160162       -5.6686370825
 C         3.9115825334       -9.4872028123       -7.5730700835
 C         2.8723803833      -10.2017827579       -8.5102385228
 O         2.3556049016       -9.6413354760       -9.5058912620
 C         2.4413959969      -11.6443055463       -8.2137315762
 C         1.4586548380      -12.1106704228       -9.3351465118
 C         0.0328502679      -11.3799624336       -9.1665237557
 O        -0.3960411662      -10.9168318993       -8.1414378699
 C        -0.7165801012      -11.3356889823      -10.5435065145
 C        -2.1917921158      -10.8420105044      -10.1601998315
 O        -2.5047009661       -9.6421267107      -10.3337339266
 C        -3.2209633615      -11.8257019891       -9.6282349182
 C        -4.5528643198      -10.9827075394       -9.2200201323
 C        -4.5047180134      -10.4171116499       -7.7664079328
 O        -3.6201460176       -9.6734016150       -7.3974034900
 C        -5.5316656437      -11.0448981323       -6.8430354770
 C        -7.0375621282      -10.5852523046       -7.4722003726
 O        -7.5104210491      -11.3105505946       -8.3090757256
 C        -7.8218289179       -9.2681490144       -6.9916581128
 C        -8.6462192012       -8.5812902086       -8.0894324669
 C        -7.8917514694       -8.3643044386       -9.4490798257
 O        -6.7325933449       -8.6976513810       -9.5393659906
 C        -8.6163893797       -7.6911890146      -10.6107263266
 C        -9.5909924962       -6.4344733723      -10.2217203645
 O        -9.9912988668       -6.2228402798       -9.0943938785
 C       -10.0668826544       -5.5511597318      -11.4785841665
 C       -11.2803849261       -4.6577947746      -11.1172499756
 C       -11.9728949895       -4.1103852886      -12.4973260766
 O       -11.2980937167       -3.5171007077      -13.2917317946
 C       -13.5291620112       -4.1506499568      -12.6339893694
 C       -14.1360239061       -5.5069738589      -12.3789993772
 O       -13.4994431264       -6.5400087152      -12.4197742429
 C       -15.4754465587       -5.6422522761      -11.6253481572
 C       -13.9723575134       -3.1958746972      -11.4394333084
 C       -14.0977752856       -3.4876207825      -13.9425053210
 C        -7.5542498027       -7.1123391342      -11.6233025681
 C        -9.4311663514       -8.8923276134      -11.1944554088
 C        -5.4979655983      -12.5804046425       -6.7603309856
 C        -5.3778316752      -10.3847087096       -5.3770522152
 C        -0.0348497650      -10.4515529819      -11.6500208588
 C        -0.7643462633      -12.7402697879      -11.2195569456
 C         5.0095079889       -8.7937429969       -8.5947160197
 C         4.7122349556      -10.3897610533       -6.6561644920
 C        -0.1006060677       -5.5151162464       -4.7318975036
 C        -1.3499641813       -7.6039009360       -4.8877942122
 C        -3.6861111607       -3.0146319354      -10.2328204843
 C        -1.5416626965       -1.7002394774      -10.6741103535
 C        -0.7627397530        2.9913476747       -8.4161536394
 C        -2.6931889997        4.4796254043       -7.5077578996
 C         1.4061336029       10.2581536948       -7.2999927803
 C        -1.1712892347       10.3584882262       -7.8371345451
 C         2.8613312628        8.1870653821      -14.5689717455
 C         0.8293410342        9.7506017655      -14.6329106842
 C        -3.0009977939        2.8954895440      -15.3414819587
 C        -2.1962036862        4.7769387546      -16.7080566143
 C        -6.5825767290        9.3698037811      -12.7996858934
 C        -4.6913826248        9.5133060733      -11.0317809284
 H        -7.2260156675        7.9274330697       -9.2420956327
 H        -8.1337087174        6.8165630390      -10.4226070997
 H        -7.9197406853        8.6145855882      -10.6723060405
 H        -5.1720451573        8.7068569281      -14.9037240718
 H        -5.8966314924        7.1768866666      -14.4494385394
 H        -2.9657019262        7.3587793395      -15.1881036825
 H        -4.3195866599        6.8729861001      -16.2794588017
 H        -0.0285587691        5.2057674263      -15.4912304805
 H         0.4738734547        3.8496694682      -14.3902005338
 H         1.8968547538        5.5855162018      -13.8303439287
 H         0.6008785141        5.8712999913      -12.5682596285
 H         1.4503046848       10.9354110643      -12.4041122871
 H         3.1737474594       10.5122943621      -12.1878632176
 H         2.6593472310       11.0921619957       -9.8863028681
 H         2.5210667652        9.3209672119       -9.9289992151
 H         0.8521109989        7.6273741386      -10.0205244167
 H        -0.8644820427        7.6732383625       -9.6632533943
 H        -0.0778290901        5.6927271577       -7.9365759568
 H         0.8392727128        5.2529012887       -9.4094213544
 H        -4.5584398073        1.6924154103       -8.7395403506
 H        -3.1546837262        1.8774485028       -7.6623906292
 H        -1.6722574352        0.4805169398       -9.3890546399
 H        -3.0301572576        0.8200494996      -10.4901687152
 H        -3.4267778490       -4.1836976073       -8.0004665756
 H        -3.7245875010       -2.8171625455       -6.9379933472
 H        -2.9430816931       -4.5616969687       -5.5305197717
 H        -1.3392430844       -3.8739877223       -5.6840984325
 H         2.0605358755       -6.0807647185       -5.8597145128
 H         1.4332170054       -5.3824799251       -7.2820244214
 H         3.5284353310       -6.5081508934       -7.8360473817
 H         2.2816174554       -7.6877148768       -8.5541749893
 H         2.2066674766      -11.8943526581       -7.1635340888
 H         3.4029697975      -12.3004753938       -8.2618272788
 H         1.3711128231      -13.1947103544       -9.2604976503
 H         1.8435990098      -11.8340957588      -10.3214637825
 H        -2.8998716148      -12.3235585929       -8.7546541738
 H        -3.5719132052      -12.5989075090      -10.2916819797
 H        -5.3216588423      -11.7271489599       -9.2417478490
 H        -4.7351061026      -10.2245720628       -9.9443587663
 H        -7.1009356804       -8.6404996148       -6.4242506767
 H        -8.4845449887       -9.5476985682       -6.1463208412
 H        -9.0384462803       -7.6894196591       -7.7298408169
 H        -9.4805745606       -9.1752913494       -8.2026452001
 H       -10.4702595955       -6.1589580455      -12.2230635286
 H        -9.3679568877       -4.9180476191      -12.0646593535
 H       -11.0834123919       -3.8369497609      -10.4445179064
 H       -11.9956107021       -5.3797734976      -10.5957683106
 H       -16.1999249130       -5.0054562396      -12.0867483659
 H       -15.2973463470       -5.3724248910      -10.5592164635
 H       -15.7470003400       -6.7237704645      -11.7495070056
 H       -13.9511273732       -3.5552171379      -10.4532366519
 H       -14.9838887813       -2.9417128766      -11.6896989725
 H       -13.2868787523       -2.3073216712      -11.5071132697
 H       -13.7421674413       -2.5340604473      -14.2653628193
 H       -15.1441995010       -3.3447060367      -13.6667199830
 H       -14.0543508518       -4.2758936170      -14.6912131954
 H        -8.0679223059       -6.9456639340      -12.6396715344
 H        -6.7930959624       -7.8941305537      -11.7711038837
 H        -7.0755770602       -6.1560040961      -11.3510059279
 H       -10.0907563574       -9.2151943019      -10.3460263304
 H        -8.9182849045       -9.8084646721      -11.6165861380
 H       -10.0456349991       -8.5906945176      -12.0451795504
 H        -6.5242547722      -12.9035074202       -6.4546040605
 H        -4.7762574152      -13.0527929298       -6.1600759497
 H        -5.5085945219      -13.0230575330       -7.7723080375
 H        -6.2313905017      -10.6665873575       -4.7601903245
 H        -5.3662647469       -9.3012718822       -5.4210962246
 H        -4.4099763132      -10.6196225082       -5.0399442703
 H         0.9910773462      -10.6569449927      -11.8767745881
 H        -0.0794578159       -9.3644442847      -11.4692063880
 H        -0.5366689150      -10.5127581355      -12.6345631086
 H         0.2007360171      -13.1663282969      -11.2640596208
 H        -1.2280189311      -12.6619351464      -12.2161671841
 H        -1.5538857953      -13.3543667718      -10.7326210327
 H         4.4137729437       -8.5206042507       -9.4765858802
 H         5.6534235293       -9.6298023945       -8.7718498888
 H         5.5043566329       -7.9216672178       -8.2025970223
 H         4.1152294128      -10.8797675460       -5.8795257012
 H         5.4615001444       -9.7977174441       -6.1362140377
 H         5.2382118245      -11.1225983987       -7.2502644078
 H         0.5871125919       -6.0464876032       -4.0787170130
 H        -0.8444140513       -4.8682287304       -4.1808850254
 H         0.4810506745       -4.7469958804       -5.2636281885
 H        -0.8340951110       -7.9418924913       -4.0605796179
 H        -1.6513356349       -8.3735199798       -5.4818584881
 H        -2.3134011371       -7.3645370793       -4.5624845416
 H        -4.0861906725       -2.6946611733      -11.1907579226
 H        -4.5345301545       -3.0280478215       -9.5724228391
 H        -3.3368121021       -3.9963326087      -10.2278401498
 H        -0.7364647651       -1.2809639908      -10.1683385081
 H        -1.8530570817       -0.9895849348      -11.4585923204
 H        -1.2854442902       -2.5819273185      -11.2634942920
 H         0.0936442355        2.8977619665       -9.1077422930
 H        -1.1859211514        2.0622703069       -8.0822238830
 H        -0.3275649916        3.4304302447       -7.5257269455
 H        -3.5809792317        3.8511458362       -7.2837344268
 H        -2.9384316528        5.4995789432       -7.7004523102
 H        -2.0355512308        4.4504095744       -6.6288979508
 H         1.2559726167        9.7860145051       -6.2954802907
 H         1.4366976761       11.2379783982       -6.8456895339
 H         2.4241704349       10.0388534056       -7.5484072307
 H        -1.2665266128       10.5956301453       -6.8373785777
 H        -1.9124750079        9.6318881216       -8.1031058711
 H        -1.5448181435       11.2006328256       -8.3433084133
 H         3.6187373903        8.9931869877      -14.3041285687
 H         2.7201117221        8.1552527580      -15.6191892367
 H         3.1596733862        7.1755181157      -14.2861775196
 H         0.3765957116        9.5384772295      -15.5430872176
 H         1.6455322539       10.4040918089      -14.7613791532
 H         0.1606414748       10.3155018034      -14.0307849394
 H        -3.0402722435        2.5083039534      -14.3366847794
 H        -2.1089340946        2.3972710469      -15.7451336044
 H        -3.8472931791        2.8340570499      -15.8951047972
 H        -1.6408849710        5.6933691992      -16.6977774192
 H        -3.0798328283        4.9273864321      -17.4260084791
 H        -1.5012797247        4.0864577937      -17.1631530246
 H        -7.2910972584        8.6952209591      -13.2142073709
 H        -6.0887344990        9.8551619057      -13.6261659834
 H        -7.1139206656       10.1666093210      -12.2853508282
 H        -3.9068368150        8.9050115734      -10.5549046727
 H        -5.4109358752        9.8463479044      -10.3458937107
 H        -4.2260069914       10.3042926390      -11.5364845440
 Na       -3.7802656377        5.1923548285      -11.7516493207
 Na       -1.9583432462       -8.5693667860       -8.4084790905
