232

 C        -7.3368806119        7.8161059889      -10.1548409634
 C        -6.0719833190        7.5689000347      -10.9888359701
 O        -5.4987933171        6.5038585350      -10.9292574930
 C        -5.5155537962        8.7808618978      -12.0171435389
 C        -4.5140256989        7.8856858168      -12.9522366156
 O        -3.4455161087        7.4640115818      -12.5637869002
 C        -4.9612953170        7.6719479702      -14.4518158884
 C        -3.7327399987        6.9191961040      -15.2089515462
 C        -3.6297398964        5.4776751799      -14.7252950268
 O        -4.4942616537        4.9690067212      -14.0358983589
 C        -2.4803944338        4.5288077714      -15.3324907604
 C        -1.3016937676        4.6044044204      -14.2096834369
 O        -1.6554067761        4.5103838613      -13.0318118654
 C         0.2065127402        4.7741080182      -14.5200162173
 C         0.6932767841        6.0293538259      -13.7160292399
 C         0.4339044359        7.4084816429      -14.2881501251
 O        -0.5542665788        7.7160203468      -14.8952382055
 C         1.5444976295        8.4720293388      -14.0650688821
 C         1.7706259211        8.6086948890      -12.4990642918
 O         1.6404678135        7.6106801110      -11.8439765612
 C         2.2822425690       10.0539986919      -11.9613144125
 C         2.2786156276       10.1255170239      -10.4108093121
 C         0.8472790966       10.0976122913       -9.9043821745
 O        -0.0215848342       10.0454139881      -10.7696766598
 C         0.5328384423        9.6762168135       -8.5051886423
 C         0.5542088844        8.1491039802       -8.2469654372
 O         0.7222806213        7.6495443073       -7.1255447407
 C         0.0068610324        7.2536565008       -9.2925340785
 C        -0.3288314967        5.8125255305       -8.7103248507
 C        -1.6435452738        5.2419841454       -9.1948613074
 O        -2.1039012128        5.6337242563      -10.2522242348
 C        -2.2844201683        3.9587498819       -8.4522145117
 C        -2.9019654577        2.9868324115       -9.3889526561
 O        -3.1058489894        3.2249048841      -10.5959530156
 C        -3.1690935383        1.5710447386       -8.9239951590
 C        -2.5524871392        0.3201882988       -9.6734252453
 C        -3.3865597522       -1.0499067189       -9.2551196730
 O        -4.3266154076       -1.1067757457       -8.4855286093
 C        -2.7248988490       -2.3599988370       -9.7336761109
 C        -2.0702363946       -2.9130345613       -8.3377818070
 O        -0.8776689296       -2.7007676645       -8.1760557653
 C        -2.9351224805       -3.4855717258       -7.1773574259
 C        -2.0433533830       -4.0518879599       -6.1704764567
 C        -1.7842756973       -5.5981687126       -6.5036358465
 O        -2.5130060430       -6.1701892337       -7.3164374374
 C        -0.7051026767       -6.3175054211       -5.6630260082
 C         0.2497070255       -6.8052576248       -6.7513011368
 O         0.0549832114       -7.7317894754       -7.4597527113
 C         1.6300852462       -5.9463710311       -7.0746999100
 C         2.7199896289       -6.7856184059       -7.7426758984
 C         3.0912412007       -8.0438631423       -6.8718728802
 O         2.6170249630       -8.3236873334       -5.7995239863
 C         3.9262824878       -9.2357928670       -7.6491824686
 C         2.8339582710       -9.9121342110       -8.5567481533
 O         2.1668691661       -9.1749177820       -9.3224936202
 C         2.4465084952      -11.3893472405       -8.3574806072
 C         1.4686787237      -11.9465478705       -9.3600081571
 C        -0.0309576190      -11.3859085362       -9.2902853676
 O        -0.4286152077      -11.0355370167       -8.1629806427
 C        -0.8345414419      -11.4590793689      -10.5762963630
 C        -2.2089070321      -10.8056960000      -10.2423237602
 O        -2.4073553716       -9.6370542017      -10.5488369449
 C        -3.3927178736      -11.6394929471       -9.7932039721
 C        -4.5879820323      -10.8032832136       -9.3153633123
 C        -4.5736145612      -10.4210597938       -7.8825857956
 O        -3.7202764854       -9.6204447788       -7.4939178369
 C        -5.6900073336      -10.9161674450       -6.8725712802
 C        -7.0467703408      -10.3944781354       -7.4928135229
 O        -7.5563703142      -10.9653327328       -8.4254196906
 C        -7.6237308359       -9.0628027756       -7.0521592717
 C        -8.6798931825       -8.5656609180       -8.1045199049
 C        -7.9282682369       -8.3075747342       -9.4392596479
 O        -6.7443249684       -8.4262183865       -9.4146120960
 C        -8.6335314240       -7.8407406773      -10.7138298851
 C        -9.6578670073       -6.7113850988      -10.3005873955
 O       -10.0300016030       -6.3395373050       -9.1515385502
 C       -10.2703134776       -6.0071103034      -11.4938512864
 C       -11.4078971380       -5.0184233557      -10.9504732302
 C       -12.0193532227       -4.2738159389      -12.1309641166
 O       -11.3545202739       -3.7610794145      -12.9895549906
 C       -13.6057910387       -4.1133271053      -12.1313334210
 C       -14.2170873072       -5.5711817810      -12.2724055309
 O       -13.5320779712       -6.3496759505      -12.9128326470
 C       -15.4971847024       -6.0457335911      -11.6204817542
 C       -14.0280026217       -3.2906299566      -10.8807556340
 C       -14.0409486407       -3.4919678046      -13.5498897563
 C        -7.5598969942       -7.2969003008      -11.6793847630
 C        -9.4603083865       -9.0792303754      -11.3236550683
 C        -5.6643973703      -12.4334350062       -6.6735572170
 C        -5.5103732982      -10.3621230996       -5.4654004787
 C        -0.0922001826      -10.5648551560      -11.5173595479
 C        -1.0003528871      -12.9264367431      -11.0828710944
 C         5.0964538639       -8.6459892901       -8.4843167865
 C         4.4588205759      -10.2687725597       -6.5847606132
 C        -0.0129509306       -5.4259099135       -4.6977359514
 C        -1.5065417334       -7.3827358819       -4.9541530069
 C        -3.7397721709       -3.2860836097      -10.3777634282
 C        -1.6079682422       -2.1865119722      -10.7925279970
 C        -1.0874261048        3.1571210629       -7.7929027995
 C        -3.1176646186        4.4553840614       -7.1770458110
 C         1.4323463871       10.5064550891       -7.5896230522
 C        -1.0021938644        9.8796893835       -8.2227038686
 C         2.9151830901        8.0018072459      -14.7082350138
 C         1.1232840681        9.8283434787      -14.6494896202
 C        -2.8760502877        3.0454038264      -15.4966488535
 C        -1.9817817735        5.1121222190      -16.6523350683
 C        -6.6271763941        9.2746605899      -12.9362781727
 C        -4.7078476004        9.7807727192      -11.1489568847
 H        -7.7925106842        8.7838594509      -10.4027348172
 H        -6.8243960342        7.8250911642       -9.2154270281
 H        -8.0765482296        7.0394995753      -10.0644433345
 H        -5.2479562125        8.5934615404      -14.9372013296
 H        -5.8788737529        7.0193128822      -14.5537000643
 H        -2.8287016953        7.5540864290      -15.1027392795
 H        -3.9777036847        7.0725239098      -16.2381496007
 H         0.3022601275        4.9841159330      -15.5733021611
 H         0.7864240683        3.9306627499      -14.1899511247
 H         1.7254120424        5.9886308354      -13.5898058517
 H         0.1322006882        6.0175349219      -12.7319711668
 H         1.4748353898       10.7319907431      -12.4106117149
 H         3.2933483537       10.1656053354      -12.3466617918
 H         2.9259069772       10.9330292968      -10.1798240622
 H         2.6854079894        9.1970424462       -9.9178821509
 H         0.8376870326        7.3002489061      -10.0559627222
 H        -0.8770843093        7.6918377862       -9.7235657382
 H        -0.3472396181        5.7765350365       -7.5869485400
 H         0.5125901565        5.1424358245       -9.1064585175
 H        -4.2195281408        1.5173759041       -8.8551030435
 H        -2.9162288010        1.4466877237       -7.8627546539
 H        -1.4785953983        0.0860233098       -9.4022669343
 H        -2.5628552401        0.4383224165      -10.7271147824
 H        -3.7117401011       -4.1571935745       -7.5823266666
 H        -3.5070028516       -2.6494273839       -6.7383768295
 H        -2.4538693340       -4.1711549461       -5.1999278229
 H        -1.1201964968       -3.5335395461       -6.0997168676
 H         1.9202870344       -5.4407386241       -6.1362205162
 H         1.3490559264       -5.1358265711       -7.6845430757
 H         3.6258811529       -6.1599532507       -7.7843903139
 H         2.3201745649       -7.2476303445       -8.6420011058
 H         2.2952698211      -11.5632612379       -7.2497460575
 H         3.3708797182      -11.9161240549       -8.5111205976
 H         1.2956682510      -12.9786170114       -9.2260325624
 H         1.9264564242      -11.8196268193      -10.3794830777
 H        -3.1377889169      -12.2458701497       -9.0051979492
 H        -3.7713893926      -12.3936150881      -10.5937995934
 H        -5.5943219108      -11.2783356513       -9.5505895323
 H        -4.5288154594       -9.8380951604       -9.9359324152
 H        -6.7885058265       -8.3642104355       -6.9401860645
 H        -7.9595307250       -9.1716773400       -6.0332299713
 H        -9.2404886427       -7.6750346470       -7.6923281766
 H        -9.5112946106       -9.3096835276       -8.3002952034
 H       -10.8390081486       -6.7562446554      -12.1026513672
 H        -9.6351088414       -5.4341647789      -12.2349487260
 H       -10.9077191138       -4.2788085026      -10.3125264266
 H       -12.1291260715       -5.7490040079      -10.4506437092
 H       -16.2526938206       -5.4779190321      -12.1225594044
 H       -15.4854220334       -5.8552745250      -10.5685344571
 H       -15.6060243230       -7.1267086889      -11.8151676647
 H       -13.5568143239       -3.6829235250      -10.0413270126
 H       -15.1281135776       -3.4340629671      -10.7614682599
 H       -13.7686958762       -2.1455795857      -10.8654412849
 H       -13.6852127328       -2.5045799481      -13.4899505458
 H       -15.1974102092       -3.5736067871      -13.6665873684
 H       -13.5829819433       -3.9808761983      -14.4599717087
 H        -8.0426286614       -6.8439963759      -12.5845753822
 H        -6.8447410302       -7.9842377184      -11.9522868311
 H        -7.0125290661       -6.5064881349      -11.2017047434
 H       -10.1453907833       -9.5324165497      -10.5899360373
 H        -8.7447925781       -9.8384553733      -11.5548051392
 H       -10.0315698611       -8.8969870191      -12.1472953253
 H        -6.1023882495      -12.7778507936       -5.7367304830
 H        -4.6508828633      -12.7750017994       -6.6481834895
 H        -6.1984596024      -13.0049775560       -7.4264436497
 H        -6.4985833761      -10.6012640198       -4.9578914334
 H        -5.4964611891       -9.2990735629       -5.6081648622
 H        -4.6263361219      -10.7155967902       -4.8705068263
 H         0.8356262002      -10.9215776513      -11.9420102075
 H         0.2889696900       -9.6782087928      -11.0668646174
 H        -0.7056484806      -10.1685121509      -12.3395883853
 H        -0.2312919795      -13.0231856002      -11.8538777252
 H        -1.9702240925      -13.0695045773      -11.4850777140
 H        -0.8069308978      -13.7060901787      -10.3622863332
 H         4.7298508374       -7.7049132669       -8.9054730187
 H         5.5489078076       -9.3886007547       -9.1084820231
 H         5.9091861032       -8.4619834297       -7.7429433958
 H         3.7475317094      -10.6535029709       -5.8465312272
 H         5.2083206820       -9.6436410431       -6.0240722185
 H         5.0732211520      -11.0134658630       -7.1187439414
 H         0.8867873383       -5.9325470084       -4.3547421202
 H        -0.5710519583       -5.2713320372       -3.7651167173
 H         0.2135703578       -4.5058148942       -5.1558257725
 H        -0.9044143808       -8.0971232390       -4.3167921747
 H        -2.3759424957       -7.9112013184       -5.3862127786
 H        -2.0006320035       -6.9756839600       -3.9849818148
 H        -4.0509733817       -2.9904413570      -11.4245647877
 H        -4.6519813988       -3.3936202899       -9.7506218994
 H        -3.3930158417       -4.3599192519      -10.5710899535
 H        -0.8444371987       -1.4643266213      -10.5025135436
 H        -2.1028877164       -1.7370910876      -11.7263696819
 H        -1.1103613881       -3.1660476641      -10.9792729926
 H        -0.4525107644        2.6818415671       -8.5225207561
 H        -1.4298495998        2.3131972089       -7.1604164634
 H        -0.4532390075        3.8490348930       -7.2581532852
 H        -4.0115130300        3.8523294025       -7.0380521440
 H        -3.4493027993        5.3929117180       -7.4725474024
 H        -2.5476004777        4.3810187271       -6.2138488363
 H         1.2957664054       10.4422753867       -6.4917613038
 H         1.3786459871       11.5305373012       -7.7002761642
 H         2.4536051592       10.3642124219       -7.6774610707
 H        -1.5358008348        9.2401594233       -7.4928767084
 H        -1.5032272794        9.8025310419       -9.2261627963
 H        -1.3245404806       10.8961640423       -7.8537069423
 H         3.5124545692        8.9105996030      -14.8450196200
 H         2.8207705234        7.4774172762      -15.6119385579
 H         3.4300373867        7.3724189745      -13.9617324433
 H         1.1547698948        9.6396496281      -15.7492329062
 H         1.8216416491       10.6956521478      -14.4202628928
 H         0.0252420672       10.0716916348      -14.5052659041
 H        -3.4836632803        2.7384712966      -14.6082978197
 H        -1.8670320191        2.4806735509      -15.6825101201
 H        -3.4421627180        2.9784505571      -16.4286102130
 H        -1.5011424761        6.0297986640      -16.6275461968
 H        -2.8722538437        5.3067065724      -17.3449832933
 H        -1.2854326584        4.4516055310      -17.1524575531
 H        -7.0213916173        8.4611756662      -13.5853929174
 H        -6.4226841739       10.1402862741      -13.5668884671
 H        -7.4598766221        9.5075030034      -12.2226707504
 H        -3.7679162034        9.2582100677      -10.8286176284
 H        -5.3916067084       10.1561742140      -10.3594502831
 H        -4.4468467627       10.6638617862      -11.7989175791
 Na       -3.6746123551        5.1668317321      -11.9291424403
 Na       -1.8440962366       -8.6852665198       -8.2795584430
