232

 C       -21.6117033545       -7.4082202203       -2.3516708027
 C       -20.7859481210       -6.2295415637       -2.8949249473
 O       -20.2278515495       -5.4295897398       -2.1780277628
 C       -20.9543318052       -5.9587583834       -4.4952462518
 C       -20.0165954628       -4.7486575454       -4.9868548451
 O       -19.7985903681       -3.8017983611       -4.2527851121
 C       -19.5232949041       -4.6589857120       -6.4422184601
 C       -17.9196568386       -4.7574899122       -6.6471638993
 C       -17.2068491526       -4.2751589253       -5.3225153842
 O       -17.1585319890       -4.9924882586       -4.3465573422
 C       -16.5200167634       -2.8481332208       -5.2310242967
 C       -16.5703701246       -2.5812799900       -3.7092697792
 O       -17.6215157382       -2.1218490409       -3.3078430736
 C       -15.3618071368       -2.8065941272       -2.8471515558
 C       -15.6082140892       -2.3705092070       -1.3532695339
 C       -16.1030532306       -3.5101049008       -0.4448147935
 O       -17.1810115948       -4.0665567260       -0.6365152601
 C       -15.3040103409       -3.7913099333        0.8934445563
 C       -13.9326484632       -4.2166415760        0.3630528957
 O       -12.8781111524       -3.6260022184        0.7073309883
 C       -13.8558574010       -5.4113887287       -0.5950522748
 C       -12.5024476679       -5.6995278685       -1.2234061377
 C       -12.6221119868       -6.0425428585       -2.7265156737
 O       -13.4243402146       -5.4496575821       -3.4111069709
 C       -11.7569656406       -7.2676580511       -3.3930516738
 C       -10.5192378490       -6.6841583566       -4.1227469796
 O       -10.3460237180       -5.4741131367       -4.1070115855
 C        -9.3695726353       -7.4724981463       -4.8481881146
 C        -7.9991328551       -7.2744776871       -4.1815892057
 C        -7.3034758906       -6.0105504166       -4.5418608214
 O        -7.5087826125       -5.4492262405       -5.6081404723
 C        -6.3223315185       -5.2692768844       -3.4925073823
 C        -4.8464283332       -5.9623244001       -3.6562493994
 O        -4.4341471257       -6.6351236273       -2.7340643165
 C        -4.1431592404       -5.6484277218       -4.9813301412
 C        -2.6443953688       -5.6995910615       -5.1021727300
 C        -1.9707037934       -4.3322619870       -5.1035821281
 O        -2.6711843976       -3.3580598947       -4.9747772187
 C        -0.4405439452       -4.1684510784       -5.4874733435
 C        -0.4357388554       -4.6362852846       -7.0147876805
 O        -0.7512208183       -5.7739182423       -7.3246186433
 C         0.0298753985       -3.4895175954       -7.9876627767
 C         0.1059582265       -4.0542992989       -9.3539431994
 C         1.5212726302       -4.4946926006       -9.8004536038
 O         2.4935381277       -4.4863384842       -9.1247668596
 C         1.5703562094       -5.0250050001      -11.2805150254
 C         1.7472589552       -3.7643073936      -12.1868028852
 O         0.7213131235       -3.4584957965      -12.7818352940
 C         2.9782281897       -2.8990502951      -12.3000603838
 C         2.7236283361       -1.5799377705      -12.9784137011
 C         4.1238637382       -0.8937454368      -13.0365913969
 O         4.4559906014       -0.1541162592      -12.1333522210
 C         4.9541218277       -1.0727220747      -14.3508666109
 C         4.5497940858        0.0478317091      -15.2753472340
 O         4.3244760086       -0.0811776026      -16.4761329406
 C         4.2666756615        1.4719826145      -14.6761519986
 C         5.1881430002        2.1489035837      -13.7075037864
 C         6.4499840271        2.7022238808      -14.2389702527
 O         6.9752320069        2.4913613231      -15.3489871967
 C         7.1554963897        3.8821662608      -13.3037160035
 C         6.4779803615        5.2110396446      -13.8494540155
 O         5.4553142403        5.6798015845      -13.3556347683
 C         7.1248754207        5.7503131361      -15.1367180935
 C         6.2894804450        6.6937508098      -16.0462651245
 C         5.9097337590        6.0059678991      -17.4370593727
 O         6.2373485397        4.8765502097      -17.6578684308
 C         5.2290206316        7.0465109109      -18.4657978066
 C         6.4373477898        7.3813087399      -19.5144254713
 O         7.1975889673        8.2711918374      -19.2267864852
 C         6.6735621258        6.3107812359      -20.5847097623
 C         7.9696907454        6.3788294003      -21.4378766728
 C         8.0089594421        5.2753175832      -22.3792130501
 O         6.9446977928        4.7785196376      -22.6778767703
 C         9.4221190458        4.6763541556      -22.8311576684
 C         9.5036241393        3.1324899505      -22.5405848996
 O         9.6069442627        2.2316595921      -23.3634247050
 C         9.3151741103        2.7342397240      -21.0886341818
 C         8.9130948688        1.2565453491      -20.8995884682
 C         8.1221876575        1.0738877407      -19.5475197393
 O         8.0769381966        1.9746726056      -18.6971327920
 C         7.5154456850       -0.3039697423      -19.2135931747
 C         5.8945870423       -0.1190404585      -19.5719053509
 O         5.1997402186        0.8167583250      -19.1790141233
 C         5.3056135803       -1.1357589568      -20.4704540644
 C         8.3598474804       -1.4160976871      -19.9964801502
 C         7.6325628560       -0.4762781460      -17.6659982061
 C         9.5636515754        4.9298834493      -24.4124319306
 C        10.7626780775        5.2913713868      -22.1141131886
 C         3.9700335372        6.2060321048      -19.0693502477
 C         4.8815620679        8.4434967059      -17.7163063511
 C         6.9132901331        3.7449578371      -11.5489745099
 C         8.7241729204        3.8346123508      -13.4900744560
 C         6.4279587285       -0.9169081601      -13.9130662945
 C         4.8349565215       -2.3551932383      -15.0664467662
 C         2.8886023183       -5.8304448117      -11.4401672941
 C         0.3834871359       -5.8888580584      -11.7445634114
 C         0.1268889509       -2.7511457265       -5.2688301893
 C         0.3781807858       -5.2931284512       -4.6057914213
 C        -6.5114573932       -3.7706027652       -3.7967686464
 C        -6.9243075705       -5.4091974447       -2.1061942825
 C       -11.3155016349       -8.4453398268       -2.4610019500
 C       -12.5486893149       -7.9658788960       -4.5123592892
 C       -15.2596896629       -2.5016157313        1.7537778500
 C       -16.0949093211       -4.8699362167        1.6446698234
 C       -15.1734818736       -2.9641319370       -5.8938954716
 C       -17.2530011230       -1.5973019830       -5.9175303885
 C       -20.8160922600       -7.2262981385       -5.3318104032
 C       -22.3952882980       -5.3650037828       -4.6367613783
 H       -22.4485648176       -7.4341274744       -2.9676077857
 H       -21.8417984958       -7.1129010436       -1.3033276613
 H       -21.0016781958       -8.2702552567       -2.3897235579
 H       -19.8268743409       -3.6500187302       -6.8019610966
 H       -20.0483652890       -5.3784704353       -7.0938519577
 H       -17.7539013480       -4.0840234567       -7.5419334433
 H       -17.4834764332       -5.7464794753       -6.9647929041
 H       -14.4779290784       -2.3298992284       -3.3088542761
 H       -15.0813700682       -3.9024214175       -2.9485158548
 H       -16.2947018365       -1.5187940714       -1.2191620157
 H       -14.5665792023       -2.1407729155       -0.9021911257
 H       -14.6038254509       -5.2690117928       -1.3958806456
 H       -14.1529045065       -6.2661273273        0.0281121457
 H       -11.9952284252       -6.4479805293       -0.7124370695
 H       -11.8217744933       -4.8266036406       -1.1509553936
 H        -9.2162684522       -7.1192376525       -5.9452779019
 H        -9.6381805315       -8.5682632271       -4.8581263765
 H        -7.3858434144       -8.0818793370       -4.6120750003
 H        -7.9948714057       -7.3525102335       -3.1289629207
 H        -4.5817062996       -4.7350178107       -5.4707419133
 H        -4.6539022085       -6.4259068117       -5.6501884836
 H        -2.4019038024       -6.1920097079       -6.0139391236
 H        -2.3173375971       -6.3801001430       -4.2954373176
 H         0.9730127722       -3.0215808450       -7.5858181983
 H        -0.7474370358       -2.7117232513       -7.9081152906
 H        -0.3543238342       -3.3652582276      -10.0829221932
 H        -0.4952369813       -5.0320096825       -9.5100217430
 H         3.6572651869       -3.4623044365      -12.9519045485
 H         3.4766497969       -2.8828567090      -11.3322484185
 H         2.0431705737       -0.9894422578      -12.2786776131
 H         2.3687047579       -1.7093847376      -14.0219231939
 H         3.2897724011        1.4495028658      -14.2247328192
 H         4.0078775811        2.1006348261      -15.4546348175
 H         5.4008982033        1.6248723395      -12.7523992022
 H         4.7341492507        3.1168322060      -13.3898163756
 H         7.4491445670        5.0381953634      -15.7922682266
 H         7.9792790702        6.2646667568      -14.8077224038
 H         6.9822123148        7.5544809010      -16.2204563249
 H         5.3824135379        7.1344754359      -15.4984502934
 H         5.7199831094        6.3575698021      -21.0988006626
 H         6.6282988576        5.3214473676      -20.0969901488
 H         8.7078114158        6.3769239446      -20.6461571247
 H         7.9823980302        7.3734875004      -21.9367288579
 H         8.3808605064        3.2767375013      -20.7495321554
 H        10.1617269344        2.8615224863      -20.4067748019
 H         9.7952831367        0.6654779112      -20.7643709892
 H         8.3964082532        0.7932083232      -21.7979622351
 H         5.6377282565       -2.1891381771      -20.1671714862
 H         5.5446117474       -1.0475215030      -21.4971582198
 H         4.2141945921       -1.0452433381      -20.3673448573
 H         7.8218494459       -2.3667988880      -19.8260814000
 H         9.3586113031       -1.5063193339      -19.6854469677
 H         8.3767256528       -1.1871936289      -21.1011970981
 H         7.4274285575       -1.4523509040      -17.1694736201
 H         6.8993397998        0.2009846506      -17.2248890608
 H         8.6199746914       -0.1627652927      -17.2391504802
 H         9.6712128088        3.9908359153      -24.9373106503
 H        10.5350397256        5.3943639014      -24.5797192359
 H         8.6612831758        5.4561986752      -24.8733824371
 H        11.5767114038        4.8313195929      -22.6205418568
 H        10.8864915437        5.2108562310      -21.0630396443
 H        10.7975242129        6.3200442443      -22.3142728459
 H         3.3113953773        5.7664556525      -18.3644890575
 H         4.3912541659        5.3853368380      -19.6922643924
 H         3.4099959803        6.9052966067      -19.7149961876
 H         5.8576091845        8.6801378733      -17.2512392166
 H         4.0381208675        8.3441655452      -17.1004260649
 H         4.5881472028        9.2365998046      -18.4487499352
 H         7.6974125541        4.3652117031      -11.1389811557
 H         7.1605513445        2.7244458590      -11.2510522822
 H         5.9211366237        3.9493698061      -11.2763218062
 H         9.0162890373        2.8135555659      -13.3792528307
 H         9.2388042158        4.4753718141      -12.7843682668
 H         8.8515554014        4.2632105044      -14.4043236813
 H         6.6156593695       -0.0059619859      -13.3654685554
 H         7.0641868247       -0.7897468223      -14.7941445978
 H         6.7631369403       -1.6726373494      -13.3027780604
 H         5.1831291644       -3.1627347841      -14.4821931683
 H         5.4908863619       -2.2685175678      -16.0019675940
 H         3.9046862894       -2.7152160201      -15.4517040807
 H         2.6326022693       -6.8591047677      -11.1035966974
 H         3.7216872202       -5.4911765009      -10.7543974246
 H         3.3632073889       -5.8298754245      -12.4530074841
 H        -0.4140487814       -5.1840696378      -11.9866840209
 H         0.0148422995       -6.6439923140      -10.9873597966
 H         0.6701163033       -6.3077754225      -12.7021101207
 H         0.3326223959       -2.5892775964       -4.2138970123
 H        -0.5486858748       -1.9772372176       -5.6581398509
 H         1.0670764347       -2.5008742573       -5.7819154396
 H         1.1236633276       -5.8108567232       -5.1302843792
 H        -0.2667008594       -6.0937151684       -4.1469903057
 H         0.9543070162       -4.7342241728       -3.8538398153
 H        -6.0311534327       -3.4129154267       -4.6649123570
 H        -6.1438246972       -3.2158168638       -2.9865064289
 H        -7.5942235336       -3.4972998400       -3.8658628281
 H        -7.9433183602       -5.1025555951       -2.2170584267
 H        -6.4907889971       -4.8376085368       -1.2989958779
 H        -7.0230622441       -6.4640641306       -1.6843972097
 H       -12.1569099943       -9.1327396441       -2.0864201511
 H       -10.8108978218       -8.1180340842       -1.5946738133
 H       -10.7303416581       -9.0317626154       -3.1196401932
 H       -13.5531100752       -8.1330204587       -4.2332282359
 H       -12.2004912266       -9.0410671298       -4.6173723350
 H       -12.4928633965       -7.3922866706       -5.4691801707
 H       -15.0825321728       -2.6151448456        2.8081094087
 H       -16.3243418348       -2.0662055031        1.6026585035
 H       -14.5238044833       -1.7089032009        1.3979209872
 H       -16.6088347295       -5.6194178134        0.9883014997
 H       -16.7985192478       -4.2781912457        2.2366275527
 H       -15.4050440856       -5.4065613463        2.3217071501
 H       -15.2508418400       -3.4309096573       -6.8199806417
 H       -14.4355389362       -3.4979067906       -5.2590284380
 H       -14.7407018154       -1.9486850598       -5.8737888051
 H       -18.2560578657       -1.7600260503       -5.6008004028
 H       -17.3282313880       -1.7029877967       -7.0451912333
 H       -16.6803324251       -0.6910174934       -5.6302569788
 H       -19.8878683196       -7.6493137042       -5.2482125759
 H       -21.1329796650       -7.2690536942       -6.3841477424
 H       -21.4087693592       -8.0179900997       -4.9090788909
 H       -22.3561265128       -4.5599447117       -5.4586644296
 H       -22.8018648093       -4.9569126860       -3.7460307175
 H       -23.0951876226       -6.1903403005       -4.8425896092
 Na      -18.5915139398       -3.9993444544       -2.4824468407
 Na        6.2517326745        2.3978672654      -17.5408363553
