232

 C        -7.2082588599        8.0261839542      -10.0616033569
 C        -6.0070235554        7.4809125400      -10.9497684443
 O        -5.3192911397        6.5341167320      -10.6049332586
 C        -5.5994238740        8.5253116182      -12.1243024653
 C        -4.5006979993        7.8182699168      -13.0477232143
 O        -3.4758364270        7.4274613307      -12.4884387402
 C        -4.7508728497        7.7571912530      -14.5299872445
 C        -3.6352583879        6.9909696819      -15.2196626452
 C        -3.6190266326        5.5104118662      -14.9488009050
 O        -4.4303463369        4.9038773160      -14.2043388556
 C        -2.3625942067        4.7095183083      -15.4585812731
 C        -1.2681283029        4.7075814956      -14.1883047699
 O        -1.5910225790        4.5033789845      -13.0376924044
 C         0.1512316694        4.9066691783      -14.6403097374
 C         0.7958221398        6.0183230685      -13.8568752121
 C         0.4468148106        7.4105328221      -14.3718305398
 O        -0.6142841599        7.6574492670      -14.8894311044
 C         1.5384371200        8.4806696644      -14.1902259425
 C         1.9890922064        8.6297132695      -12.6155436297
 O         1.7580731951        7.6682968443      -11.9033687391
 C         2.5465843953        9.9957482350      -11.9623686423
 C         2.2468355368        9.8431193296      -10.4620332882
 C         0.7929593667        9.8162807518      -10.1211271360
 O        -0.0419780817        9.7405046429      -10.9663200665
 C         0.4046046196        9.7102972682       -8.6022755038
 C         0.6370655702        8.1539247799       -8.1547402431
 O         1.3674043443        7.8358956296       -7.2766491016
 C        -0.0354908043        7.0855273304       -9.0874133585
 C        -0.2530639806        5.7014120669       -8.4514832820
 C        -1.5822842116        4.9866647145       -9.0930378650
 O        -2.2411565297        5.5932859011       -9.9307084796
 C        -2.2393213414        3.7233588734       -8.3334904935
 C        -2.9153558631        2.7772319379       -9.2977219506
 O        -3.1627271518        3.0945303963      -10.4448404743
 C        -3.2807870802        1.3506678270       -8.8622765190
 C        -2.5999378224        0.3211736305       -9.6907661674
 C        -3.3095883193       -1.0538262662       -9.3080589411
 O        -4.2212794606       -1.0638789738       -8.5223464563
 C        -2.6759483447       -2.5669135226       -9.7966153389
 C        -2.0620133786       -2.9766487915       -8.4805738722
 O        -0.8714336262       -2.8108506430       -8.2282808985
 C        -3.0547141836       -3.3908632444       -7.3341527803
 C        -2.3049102398       -3.9993293377       -6.1313803703
 C        -1.8701092727       -5.4897677093       -6.4260030260
 O        -2.4529371271       -6.2226207723       -7.1744321022
 C        -0.6959437350       -6.2238644373       -5.6630867529
 C         0.4286305198       -6.5401243426       -6.7704643240
 O         0.2197625661       -7.5133834098       -7.5213221112
 C         1.6908778259       -5.7236124889       -6.9323915892
 C         2.8118739501       -6.5125865727       -7.6683971806
 C         2.9771649946       -7.9137269485       -6.9050495722
 O         2.4242081375       -8.0924634031       -5.8321474848
 C         3.7112527793       -9.0929732495       -7.6691109952
 C         2.6673408232       -9.8511485846       -8.6139280336
 O         2.3477289582       -9.2575810280       -9.5910204343
 C         2.3144414250      -11.3465905636       -8.2707991126
 C         1.3325294791      -11.9042108941       -9.2640521356
 C        -0.0007969233      -11.2740769673       -9.3195754265
 O        -0.4628703706      -10.7276644350       -8.3589648131
 C        -0.8204051302      -11.3927049423      -10.6245969916
 C        -2.2475441874      -10.7125850264      -10.3262241980
 O        -2.3075685383       -9.4965791365      -10.3651301862
 C        -3.3952162395      -11.5334303075       -9.7894874435
 C        -4.6873409391      -10.8242152459       -9.2437287823
 C        -4.5947032819      -10.3400016723       -7.7945417153
 O        -3.6984758095       -9.6597800081       -7.3192313957
 C        -5.7010175338      -10.8371460617       -6.8473286823
 C        -7.1255930559      -10.4860052569       -7.4383461265
 O        -7.6181504593      -11.0740807465       -8.3741994756
 C        -7.7830434217       -9.1401603022       -7.0022671220
 C        -8.5978358924       -8.5252254930       -8.0934329274
 C        -7.8725614653       -8.2036468764       -9.3597154766
 O        -6.6431495813       -8.0961128083       -9.3530835187
 C        -8.6280191716       -8.0178512425      -10.7558859331
 C        -9.7192695098       -6.7875737381      -10.4059388017
 O        -9.8431352997       -6.4425368449       -9.2611511998
 C       -10.5307060413       -6.0556096227      -11.4598925953
 C       -11.5482962736       -5.1089487499      -10.8274180705
 C       -12.1151634137       -4.2344534913      -11.9511470408
 O       -11.4838814950       -3.8142296937      -12.8879512029
 C       -13.6611912319       -4.0974002737      -12.0428945308
 C       -14.1680772285       -5.5882996922      -12.3474385739
 O       -13.5895370856       -6.3923662166      -13.0227856062
 C       -15.4199481006       -6.1087921516      -11.6083377068
 C       -14.3838674847       -3.5767332303      -10.7322421843
 C       -14.1118384974       -3.1760377658      -13.2099771238
 C        -7.6834826224       -7.4806252782      -11.9181761218
 C        -9.2918356910       -9.4034485053      -11.1961955494
 C        -5.7436181585      -12.4195947249       -6.9152571691
 C        -5.5293894477      -10.2497634505       -5.4626924264
 C        -0.0652310184      -10.6858721518      -11.8166404459
 C        -1.0939748033      -12.8807498669      -10.9983978043
 C         4.7869880589       -8.6275727846       -8.5907578234
 C         4.2798413915      -10.0125374186       -6.4839475143
 C        -0.1803228247       -5.4639481536       -4.4860560448
 C        -1.1572344026       -7.6177557467       -5.1388445906
 C        -3.8400053595       -3.4479913155      -10.2320184163
 C        -1.6107028008       -2.4271135735      -10.8636792786
 C        -1.2179872328        3.1244913365       -7.3056534597
 C        -3.3993952622        4.3443542672       -7.5720130898
 C         1.2999742532       10.3872848964       -7.6345700678
 C        -0.9516202788       10.3291705651       -8.3624597558
 C         2.9088221672        7.9519411704      -14.8215861153
 C         1.2553982076        9.8494790048      -14.9021888275
 C        -2.6503715119        3.1980203577      -15.5320770488
 C        -1.8093146976        5.3169975945      -16.7317591753
 C        -6.8325379043        9.3392073865      -12.7536164838
 C        -4.7260388120        9.6780094608      -11.4098196895
 H        -8.0541792786        7.9797450330      -10.7417912005
 H        -7.1119986538        9.0073253184       -9.5456913538
 H        -7.2698906096        7.2738983441       -9.2441497690
 H        -4.8056924440        8.7940724017      -14.9663843799
 H        -5.7532739290        7.3828361945      -14.6893912842
 H        -2.7655100977        7.6086214354      -15.0244627630
 H        -3.7647903117        7.2062019194      -16.3139274842
 H         0.3531834101        5.0620400442      -15.7201753092
 H         0.7066658573        3.9926882407      -14.3683127001
 H         1.9179700574        5.8872563490      -13.9517501189
 H         0.4490295280        5.9697200440      -12.8489401702
 H         2.0658321842       10.8180572437      -12.4218626470
 H         3.6571444986        9.8483847457      -12.0968264563
 H         2.8565418644       10.5532501304       -9.8255133095
 H         2.5531817271        8.8318326084      -10.2051506981
 H         0.6280917140        6.9885349553       -9.9256892728
 H        -1.0307419874        7.4791085347       -9.4118838627
 H        -0.4084794378        5.7252637692       -7.3658320167
 H         0.5814895740        5.0562086255       -8.6275690233
 H        -4.4080339429        1.2210648618       -9.1172040088
 H        -3.2461208872        1.1279760399       -7.7864393535
 H        -1.5478437296        0.2336404720       -9.5611025451
 H        -2.7315175792        0.5205716367      -10.7953462925
 H        -3.8033334952       -4.0872258601       -7.7855070015
 H        -3.6388618780       -2.5682195601       -6.9784839997
 H        -2.8473074384       -4.2387731823       -5.1875843901
 H        -1.3777486087       -3.4873689955       -5.8738400498
 H         1.8611355146       -5.3154986015       -5.9651776235
 H         1.3585297180       -4.8280985496       -7.5451634890
 H         3.6900766940       -5.9005731616       -7.5851657303
 H         2.4165215922       -6.8016505571       -8.6516260987
 H         1.9195929715      -11.4131597918       -7.2486097156
 H         3.2747155681      -11.9402627126       -8.2048649357
 H         1.1034306207      -13.0141233383       -9.1649269807
 H         1.7563889829      -11.8440381946      -10.2729524008
 H        -3.1596436840      -12.4120433711       -9.0905601793
 H        -3.7374551277      -11.9859774282      -10.6507547740
 H        -5.4902695674      -11.5300035094       -9.2555399480
 H        -5.0019138947      -10.0515494409       -9.9038679728
 H        -6.9906961946       -8.4560040892       -6.6558934277
 H        -8.4771957133       -9.2870937612       -6.1204407971
 H        -9.0279757690       -7.6803284309       -7.6557436886
 H        -9.4026380525       -9.1496632200       -8.3222762643
 H       -11.1289787063       -6.7789780391      -12.0232071091
 H        -9.8518799732       -5.6221879130      -12.1821731071
 H       -11.0517092375       -4.6507430736       -9.9655173389
 H       -12.2816693633       -5.8134087170      -10.5327765413
 H       -16.3503944136       -5.4861163441      -11.7193765604
 H       -15.0961155090       -6.1526458242      -10.5472343798
 H       -15.5167450691       -7.1323033681      -11.9250073280
 H       -13.8075552321       -3.8074688721       -9.7643231746
 H       -15.4475653196       -3.7648605808      -10.6789081957
 H       -14.3526990843       -2.5359431746      -10.8148060597
 H       -13.7312282370       -2.1372251154      -13.0129205815
 H       -15.1360072679       -3.3318588383      -13.3583897831
 H       -13.6818629708       -3.5251183565      -14.1229262310
 H        -8.0846287663       -7.4535817567      -12.9254461807
 H        -6.7104732557       -8.0787591715      -11.9076083005
 H        -7.2745469689       -6.4526025129      -11.6706082435
 H       -10.3010985188       -9.6452925872      -10.8788054747
 H        -8.6266118105      -10.2404753768      -10.9461765990
 H        -9.4878696001       -9.3489559455      -12.3193862287
 H        -6.3248727357      -12.7321817871       -6.0695929702
 H        -4.7938808165      -13.0037394014       -6.8502275523
 H        -6.2555115225      -12.8038978175       -7.7894475948
 H        -6.1942607630      -10.6462968944       -4.7374059641
 H        -5.5120599163       -9.1498317377       -5.5642924840
 H        -4.5575952361      -10.6455215521       -5.1446615574
 H         0.7894311758      -11.2673548278      -12.1777646397
 H         0.4923116538       -9.7596760648      -11.6506852507
 H        -0.6710719288      -10.4904590207      -12.6778275209
 H        -0.1433219664      -13.5085017281      -11.0606656219
 H        -1.5743355760      -12.8958690146      -11.9838595969
 H        -1.6230921194      -13.4157415932      -10.2383587348
 H         4.2153896455       -8.2006231781       -9.3654440057
 H         5.4237728497       -9.4672784712       -8.8063266113
 H         5.4421873872       -8.0054025317       -8.0150581386
 H         3.4054728673      -10.4089921827       -5.9282767883
 H         4.7830980096       -9.3575969545       -5.7738552624
 H         4.9941025328      -10.7692650847       -6.8301921259
 H         0.1946134399       -6.1700077774       -3.7209726727
 H        -0.9963964611       -5.0365258009       -3.9161063519
 H         0.5902656041       -4.6762563835       -4.7457192463
 H        -0.3370975679       -8.1986551414       -4.8537613007
 H        -1.7712166739       -8.1973477803       -5.7609687709
 H        -1.6638308012       -7.6160952439       -4.2582406665
 H        -4.5499035460       -2.9600801365      -10.7905108746
 H        -4.2921992444       -4.0145761337       -9.4941616334
 H        -3.5742164909       -4.1443715887      -11.0012638611
 H        -0.7046030124       -1.9422352461      -10.4373105661
 H        -1.9374384733       -1.8912243631      -11.7060070298
 H        -1.3045825007       -3.4449877104      -11.0452240973
 H        -0.5937837283        2.3886108453       -7.8274398499
 H        -1.6897417405        2.5271292049       -6.5448210060
 H        -0.5427341163        3.8600678349       -6.8606872653
 H        -3.8278226692        3.5857390962       -6.9378706826
 H        -4.2213412907        4.6187088813       -8.2875802112
 H        -3.0124516317        5.0814325455       -6.9119905308
 H         1.0486728174       10.4544520842       -6.6239944693
 H         1.6125791579       11.4105284003       -7.9033500391
 H         2.3269559230        9.9971225864       -7.5324363479
 H        -1.4546453010       10.0568395104       -7.4562394520
 H        -1.6540116689       10.2169652576       -9.1319093535
 H        -0.7806861398       11.3721410655       -8.3252416856
 H         3.6739022971        8.6913296172      -14.8916806053
 H         2.5639537456        7.7401597140      -15.8762205598
 H         3.3563177947        7.0832032737      -14.3633383874
 H         1.0581996635        9.8246567821      -15.9536575019
 H         2.0732998335       10.4818931749      -14.7278519813
 H         0.3940871714       10.2183928087      -14.4428305771
 H        -2.9249600216        2.8832578675      -14.5537444184
 H        -1.8476794460        2.7615258719      -15.9816104477
 H        -3.5019996484        2.9892504046      -16.2182615673
 H        -1.3891894810        6.3785787326      -16.6379779360
 H        -2.5254768361        5.4395410949      -17.4961645319
 H        -1.0052727216        4.6884109560      -17.1811745041
 H        -7.6047549738        8.7509206321      -13.2143696005
 H        -6.3904000401        9.9025407566      -13.5752305096
 H        -7.2540693971       10.0067472813      -12.0365996506
 H        -3.9265363828        9.1950303414      -10.9010589656
 H        -5.4288627828       10.1799303616      -10.7551034352
 H        -4.3676235920       10.3983958169      -12.1398089561
 Na       -3.5947361939        5.1653703190      -11.8774896370
 Na       -1.7287932146       -8.6027834267       -8.0255228081
