232

 C        -7.1011379910        8.0586048195      -10.1251236309
 C        -5.8939490935        7.5605237842      -10.8970124030
 O        -5.3115774553        6.5633318691      -10.6369133416
 C        -5.5370300895        8.5384400627      -12.0411362970
 C        -4.5878690217        7.7970780386      -12.9959349564
 O        -3.5310651423        7.4046514452      -12.5381914802
 C        -4.7506415083        7.8469499963      -14.5369329171
 C        -3.6661241392        6.9998011204      -15.2855419101
 C        -3.5413368439        5.5356532880      -14.9555887845
 O        -4.3930438646        4.8721119124      -14.3315104665
 C        -2.2605036706        4.7666329608      -15.4847267114
 C        -1.2596758903        4.8186829193      -14.3274523003
 O        -1.6513910246        4.6130700942      -13.1796673488
 C         0.2103129151        4.8186658801      -14.6396361697
 C         0.8411821850        5.9837919718      -13.8070482110
 C         0.5688145332        7.4022427178      -14.3717727121
 O        -0.4891828292        7.6461467476      -14.8755903589
 C         1.7157332845        8.5319825128      -14.2102243581
 C         2.0000152290        8.6525005471      -12.6803141442
 O         1.8740896258        7.6314949869      -12.0618702390
 C         2.6092009729        9.8432452361      -11.9588907536
 C         2.3029467640        9.8537629852      -10.4400920889
 C         0.7763886356        9.7681548940      -10.1237201283
 O        -0.1038534149        9.6287699072      -10.9462403118
 C         0.4733052900        9.7354994061       -8.5780577390
 C         0.6317002734        8.0899977824       -8.1968315741
 O         1.5142745053        7.7349895196       -7.4042789220
 C        -0.1859603653        7.0104301440       -8.9868740280
 C        -0.3776788338        5.6557549385       -8.3826483954
 C        -1.5955399746        4.9685135689       -8.9172827019
 O        -2.2103922310        5.5731300221       -9.8088536503
 C        -2.1709175856        3.7345103548       -8.2687696589
 C        -2.7832149860        2.7117887691       -9.3348130882
 O        -3.2423016101        3.0931684998      -10.4238209501
 C        -3.3077336104        1.3154736766       -8.8306026111
 C        -2.7241089996        0.1799055179       -9.7293459588
 C        -3.2822373371       -1.1419940525       -9.3533473947
 O        -4.2639247381       -1.0997641836       -8.6636406358
 C        -2.6978525815       -2.4631264134       -9.7898081679
 C        -2.0173270328       -3.0221930009       -8.3464212950
 O        -0.8072261378       -2.9801182764       -8.2011097958
 C        -2.9446568197       -3.5657647823       -7.2707241048
 C        -2.2814829886       -4.1848127797       -6.1036553312
 C        -1.8633975823       -5.6527523577       -6.4128194965
 O        -2.4834968345       -6.2262008730       -7.3088650684
 C        -0.6409187784       -6.2783054717       -5.6418515577
 C         0.4224410032       -6.4239571161       -6.7873185790
 O         0.2603527925       -7.3164210119       -7.5628533446
 C         1.7495071171       -5.6069604819       -6.8373760376
 C         2.7282407307       -6.4407902416       -7.6383495366
 C         2.8025397151       -7.8446300346       -6.9879679327
 O         2.4165721934       -8.0350243627       -5.8484844817
 C         3.6267390654       -8.9931363346       -7.6713657376
 C         2.6700893336       -9.8625137321       -8.5322466265
 O         2.3567354922       -9.3923515089       -9.6404514527
 C         2.1738798254      -11.2417055225       -8.1739525540
 C         1.3292671186      -12.0322855442       -9.2545824513
 C        -0.0137708060      -11.1972701276       -9.4463078857
 O        -0.3918025162      -10.5217220896       -8.4724279213
 C        -0.9753212831      -11.3610408899      -10.6416980732
 C        -2.1978584341      -10.5644293799      -10.2257888446
 O        -2.1953724581       -9.3527118422      -10.2253163083
 C        -3.3664245760      -11.4938728846       -9.7969905897
 C        -4.6145002892      -10.7102258963       -9.2956409007
 C        -4.5252778070      -10.4165988969       -7.7913154491
 O        -3.6223335047       -9.6605199839       -7.3456396265
 C        -5.7051456024      -10.8979807165       -6.8515134498
 C        -7.0947083070      -10.4189538323       -7.5337259624
 O        -7.6396971963      -11.1558240963       -8.2982180767
 C        -7.8520451283       -9.1786597688       -7.0062857750
 C        -8.6926110239       -8.5549126624       -8.1629530531
 C        -7.7658135593       -8.2081745813       -9.4244488315
 O        -6.6005302012       -7.9788960602       -9.3519726298
 C        -8.6324472007       -7.9766787600      -10.6944372642
 C        -9.6847257380       -6.8333414404      -10.3989476037
 O        -9.8689392962       -6.3554998832       -9.2510060370
 C       -10.6117516536       -6.2931946379      -11.5511301393
 C       -11.6283766176       -5.1813136742      -10.9740158198
 C       -12.2134875473       -4.2910202919      -12.0010496756
 O       -11.4936508586       -3.7093571442      -12.7756226776
 C       -13.8032809626       -4.1220968170      -12.0343171534
 C       -14.2107841817       -5.6918656975      -12.2516461804
 O       -13.5344603590       -6.2306405583      -13.0957693549
 C       -15.4824557213       -6.1768322564      -11.5979044813
 C       -14.4450428723       -3.6910652991      -10.5965773524
 C       -14.1325516100       -3.1510776267      -13.1261292752
 C        -7.7585011498       -7.5705164861      -11.9016687710
 C        -9.2548696078       -9.2947019461      -11.0166693881
 C        -5.7414731449      -12.4188924782       -6.8724985567
 C        -5.4935108173      -10.3745150931       -5.4398361823
 C        -0.3319914238      -10.6437747879      -11.8685077478
 C        -1.1183434320      -12.8759474069      -10.9046217089
 C         4.7499081519       -8.4306839998       -8.5971697648
 C         4.1720928018       -9.9063658604       -6.4183881943
 C        -0.2005721727       -5.3787856046       -4.3833982934
 C        -0.9169922708       -7.6590862534       -5.2046550584
 C        -3.8899371192       -3.3132245778      -10.2688662574
 C        -1.6807450697       -2.4755107789      -10.9352935402
 C        -1.3037804615        3.0463347075       -7.1779288946
 C        -3.5581365783        4.3138186784       -7.7570737597
 C         1.4799529209       10.5775791901       -7.7276420627
 C        -0.9848955310       10.3523890526       -8.5575628067
 C         3.0680459430        8.0400568522      -14.9538450773
 C         1.1840440319        9.7991073064      -14.8882300400
 C        -2.6979547634        3.2594337748      -15.5790466211
 C        -1.8268498774        5.3600336122      -16.7642403278
 C        -6.8093774206        9.1107431438      -12.6597090233
 C        -4.7354329834        9.6441377886      -11.4084384232
 H        -8.0119515400        7.6498527696      -10.6381218511
 H        -7.1761630953        9.1900364987      -10.1982094338
 H        -6.9258651214        7.8739556053       -9.0572771434
 H        -4.7570962191        8.8632674182      -14.8673929603
 H        -5.7464680326        7.4857266350      -14.8080634001
 H        -2.7559275771        7.6144363325      -15.1908922097
 H        -3.8207141290        7.1233913630      -16.3554237547
 H         0.5741908889        5.0344281738      -15.6885560475
 H         0.6830661054        3.8343553949      -14.3653391017
 H         1.8745319217        5.8626553678      -13.8207989307
 H         0.4065217479        5.9898324858      -12.7686456356
 H         2.0842276716       10.7289509741      -12.2984885039
 H         3.6345975095        9.6792722645      -12.1794300763
 H         2.6547221953       10.7734303322      -10.0563549812
 H         2.7780438635        9.0242470687       -9.8569689551
 H         0.3686122785        6.8485329653       -9.9302511799
 H        -1.1591598805        7.4482033403       -9.1592390126
 H        -0.6196625483        5.7174720557       -7.3061584160
 H         0.4172680102        5.0003293315       -8.4301993916
 H        -4.4091153357        1.2958838533       -8.8714992628
 H        -3.0678846639        1.1377923671       -7.7917494293
 H        -1.6372663374        0.1408099678       -9.5212445677
 H        -2.7206780630        0.3252925626      -10.8390751584
 H        -3.6883717035       -4.2802594396       -7.7875738689
 H        -3.5242045096       -2.8263281981       -6.8849564842
 H        -3.0412010468       -4.3905740888       -5.2579082100
 H        -1.3851653904       -3.6675435903       -5.6932904769
 H         2.0104049825       -5.4214460839       -5.7859355367
 H         1.6099378800       -4.5981671716       -7.2817059651
 H         3.6526710687       -5.8996518303       -7.4830920794
 H         2.3622753733       -6.6319729694       -8.6303935071
 H         1.4684494167      -11.1856671462       -7.2997422001
 H         2.9715401421      -11.7385620868       -7.8375386593
 H         1.0182795830      -13.0392269525       -8.8267261155
 H         1.8297072411      -12.3017963549      -10.2602222785
 H        -3.1227376720      -12.2101068982       -9.0111154997
 H        -3.6262637496      -12.1425672898      -10.7170814015
 H        -5.5481508278      -11.1375033085       -9.5319084114
 H        -4.6301259459       -9.7579975572       -9.7875112490
 H        -7.1107871973       -8.4789476670       -6.6076703529
 H        -8.4419986624       -9.5760873149       -6.1654606418
 H        -9.1906841420       -7.6261384117       -7.7913572563
 H        -9.5314668497       -9.2579267179       -8.4419592264
 H       -11.0975714367       -7.0984450474      -12.1565193545
 H        -9.9297821262       -5.8213954556      -12.1911919493
 H       -10.9466894746       -4.6609146986      -10.3275206078
 H       -12.3271528919       -5.6810913223      -10.3713676628
 H       -16.2408180067       -5.3595008339      -11.5741297094
 H       -15.1412964128       -6.3481012635      -10.5838811776
 H       -15.8257937704       -7.1464208452      -11.9981550902
 H       -14.1548674041       -4.4288157462       -9.9506328335
 H       -15.5186008148       -3.5318320436      -10.6350538007
 H       -14.0936335101       -2.7345698202      -10.1467488959
 H       -13.6424896579       -2.3136203284      -12.8737850495
 H       -15.2303935304       -3.1056237145      -13.2125933719
 H       -13.8234026208       -3.4972107877      -14.0774315927
 H        -8.2874043013       -7.7003601124      -12.8748648933
 H        -6.9291580319       -8.1841188075      -11.9159586010
 H        -7.3261815888       -6.5501625499      -11.8837338642
 H       -10.2424183291       -9.5694608221      -10.4913111630
 H        -8.4821022398      -10.0291560070      -10.6968057778
 H        -9.5773627514       -9.4443002396      -12.0252351159
 H        -6.3651722248      -12.7999163651       -6.0740322098
 H        -4.7031250375      -12.7386504967       -6.5584066264
 H        -5.9177843213      -12.9689901072       -7.7873006727
 H        -6.2369644884      -10.7184541829       -4.7293336391
 H        -5.3584441872       -9.3470706413       -5.5120515742
 H        -4.6293772474      -10.9323000703       -5.0365235014
 H         0.6233431999      -11.0666754418      -12.2074736918
 H         0.0198828192       -9.6800472599      -11.6819249737
 H        -0.9571057096      -10.5401397986      -12.7425799602
 H        -0.1563789961      -13.4340784868      -10.5529830292
 H        -1.2164254426      -13.0736764571      -11.9758763376
 H        -1.8233068275      -13.4105115507      -10.2467578685
 H         4.1186427811       -8.1388401889       -9.4252794691
 H         5.4960277430       -9.1924278828       -8.7863950992
 H         5.2926485223       -7.6536085339       -7.9938432189
 H         3.2940376754      -10.0688505400       -5.8778758661
 H         4.9229700213       -9.4874119572       -5.7545536078
 H         4.5041114555      -10.8316264017       -6.8314701131
 H         0.3711274485       -5.8768719781       -3.5654536189
 H        -1.1111182415       -5.1512242568       -3.8438343231
 H         0.2801237180       -4.4663418032       -4.7038334565
 H        -0.0563251003       -8.1989104256       -4.8883003034
 H        -1.3697978550       -8.2861820249       -5.9161407459
 H        -1.5694639638       -7.7581512629       -4.3509534024
 H        -4.6280941152       -2.9079927380      -10.9069508840
 H        -4.3421702484       -3.8624672201       -9.5107161908
 H        -3.5582860054       -4.0910334386      -10.9858399739
 H        -0.7190879016       -2.0748065320      -10.6581527826
 H        -2.0823944652       -1.9304264465      -11.7537876655
 H        -1.5148201168       -3.4951333577      -11.1102836409
 H        -0.4981661162        2.4748663418       -7.5589686972
 H        -1.9482204523        2.2645655473       -6.6986567159
 H        -0.9149581244        3.7146556915       -6.3889675768
 H        -3.9501646175        3.7785121144       -6.9081259002
 H        -4.2950581004        4.2715357064       -8.5260423447
 H        -3.2529305409        5.3154356806       -7.3472682522
 H         1.3552001423       10.6884755109       -6.5950955917
 H         1.5423846148       11.6068432370       -8.0768980116
 H         2.5704540883       10.4294127821       -7.6750202808
 H        -1.4090722217       10.4150196094       -7.5557667560
 H        -1.7283938135        9.8628914399       -9.1232105585
 H        -0.8879623842       11.3741386290       -8.9501754404
 H         3.8669872411        8.7699536086      -14.9725479235
 H         2.8018995214        7.8146007803      -16.0045408089
 H         3.5347601693        7.1648946449      -14.4166728348
 H         0.6763665042        9.5825155757      -15.7891138213
 H         1.9654614220       10.4632206129      -15.1398791976
 H         0.4635955460       10.1991386318      -14.2095059160
 H        -3.0899830129        3.0170131240      -14.6475365784
 H        -1.9547103492        2.6360186455      -16.0537416440
 H        -3.5305820220        3.2010913563      -16.2514768457
 H        -1.6502224490        6.3944664751      -16.7185953778
 H        -2.5225372833        5.2540358426      -17.5985939835
 H        -0.8917195858        4.8934308615      -17.1271442442
 H        -7.5500238630        8.3163133621      -12.7635649588
 H        -6.6704383579        9.4713766755      -13.6407555899
 H        -7.1932912468        9.8817091647      -12.0243388950
 H        -4.0180280300        9.0658421719      -10.9301083544
 H        -5.2724688873       10.2799200415      -10.7685157359
 H        -4.2878272185       10.2277145767      -12.2067750383
 Na       -3.5108353465        5.1180423481      -11.6599092426
 Na       -1.8222544840       -8.5837065922       -7.9887964399
