232

 C        -6.3241440584        7.9900251787       -9.5038628437
 C        -5.6188463457        7.4510814761      -10.7932215583
 O        -5.1447757970        6.2949057166      -10.8579173820
 C        -5.5199104311        8.3304517787      -12.0612308925
 C        -4.5149351100        7.8195839850      -13.1443074168
 O        -3.4078693599        7.5615455007      -12.7252702458
 C        -4.8560044483        7.9300928437      -14.6299520790
 C        -3.7852224535        7.1983925487      -15.3804385248
 C        -3.5464289182        5.7212090388      -14.9404048787
 O        -4.3060931769        5.1744399688      -14.1978916138
 C        -2.3583461644        4.9052669716      -15.6113089034
 C        -1.0885474166        4.9567618492      -14.5215348665
 O        -1.3317869236        5.0604951803      -13.3358340795
 C         0.3474749926        4.7114004390      -14.8231982732
 C         1.3924925600        5.6650606001      -14.2543562714
 C         0.9183428556        7.0488100062      -14.5038972541
 O        -0.1104690444        7.2529973930      -15.1659769726
 C         1.8103498411        8.2911471457      -14.1996998471
 C         2.4869936863        8.4356147036      -12.7859950789
 O         2.8619782565        7.4457080886      -12.1779682306
 C         2.7277310485        9.8609986243      -12.2241252659
 C         2.4998601403        9.9129431188      -10.6687011533
 C         1.0832867656        9.6232426599      -10.2292749853
 O         0.1738648421        9.2233838045      -10.9492052226
 C         0.7907249124        9.7219419326       -8.7138046382
 C         0.7097530620        8.1536215469       -8.3455486278
 O         1.5247997029        7.4987845312       -7.8054636779
 C        -0.6452831723        7.2325523733       -8.8337354954
 C        -0.8314084259        6.0101276032       -7.9485438131
 C        -1.8878013693        5.1079596664       -8.6692313416
 O        -2.2019014255        5.4161000524       -9.7934593475
 C        -2.5681055587        3.7677075132       -8.0183707455
 C        -2.7195137929        2.6227715450       -9.1321773884
 O        -2.7738020982        2.8884278225      -10.3134637821
 C        -2.9771056708        1.1915792708       -8.6981971691
 C        -2.7919204402        0.0101199134       -9.7322065056
 C        -3.3997283699       -1.3134026254       -9.2617969205
 O        -4.4674630620       -1.4131824527       -8.6708969783
 C        -2.7566095648       -2.7880485594       -9.8245910448
 C        -2.2765800755       -3.4818079934       -8.5438667161
 O        -1.1206478233       -3.7549826220       -8.2758508268
 C        -3.3891018971       -3.8216180985       -7.4738861771
 C        -2.6954661806       -4.2636981690       -6.1237445203
 C        -2.0734689168       -5.7765614772       -6.2548649200
 O        -2.9733125970       -6.6053754371       -6.4513319282
 C        -0.6306286467       -6.1692543566       -5.7084560322
 C         0.3302373937       -6.2435668044       -6.9804162370
 O        -0.0173049710       -6.7201450779       -8.0324164743
 C         1.7480293372       -5.5297074953       -6.9296070193
 C         2.8393510159       -6.4281455161       -7.5024798635
 C         2.8200439586       -7.8828973045       -7.0373386687
 O         2.0033549312       -8.2872058276       -6.2440353756
 C         3.8512642240       -8.8690021197       -7.6670666396
 C         2.8193878149       -9.6847751553       -8.6281321920
 O         2.5632909994       -9.3466284304       -9.7322796519
 C         2.1816880765      -10.9216479996       -7.9389249435
 C         1.1521117776      -11.5509787291       -8.8850236142
 C         0.0049502459      -10.5590145063       -9.1616131307
 O        -0.0463931250       -9.4787221778       -8.6138612232
 C        -0.9856530889      -10.9906292101      -10.3230136953
 C        -2.3799116814      -10.2838126633      -10.1761401902
 O        -2.4497671357       -9.1178244798      -10.5130792658
 C        -3.7375514304      -11.0523091109       -9.9701966563
 C        -4.7187974643      -10.2934679559       -9.1029281160
 C        -4.4478143535      -10.2859222045       -7.6033953498
 O        -3.4615728619       -9.7700604111       -7.1709403705
 C        -5.5433298052      -11.0159836494       -6.7326396956
 C        -6.9565866766      -10.5334596120       -7.2660606733
 O        -7.5616934907      -11.2344232007       -8.0648614271
 C        -7.4702557403       -9.1158099725       -6.9664909821
 C        -8.5771281627       -8.7535504654       -8.0091688841
 C        -7.9865591468       -8.3102295981       -9.3381242057
 O        -6.7965447132       -7.9611095892       -9.3321567261
 C        -8.8230527826       -7.9528984837      -10.6299072594
 C        -9.7016328129       -6.6386461235      -10.3586188768
 O        -9.5780227813       -6.1315376835       -9.2960380929
 C       -10.5402827386       -6.0570258360      -11.4987610925
 C       -11.8738971978       -5.4556479416      -10.8682568334
 C       -12.4725696036       -4.3386754578      -11.7608651235
 O       -11.7798328730       -3.5925071951      -12.4089363573
 C       -14.0712745361       -4.3713053610      -11.7753796597
 C       -14.5385756444       -5.7230814313      -12.4814587541
 O       -13.9240737285       -6.2529290035      -13.3891114966
 C       -15.9286392032       -6.2661694622      -11.9338099784
 C       -14.6490511358       -4.2366600605      -10.3735991581
 C       -14.5421695095       -3.2342114849      -12.7546939054
 C        -7.9221476559       -7.7139041864      -11.8287396050
 C        -9.7807932735       -9.2439885611      -10.8600271690
 C        -5.3724774090      -12.5180842351       -7.0968446931
 C        -5.4034696821      -10.8935598632       -5.2072580458
 C        -0.2641351700      -10.3881174504      -11.5316469485
 C        -1.2283555697      -12.5412831357      -10.5146741193
 C         5.0449036583       -8.2128803395       -8.5066417976
 C         4.5166521235       -9.6209278238       -6.5285351447
 C        -0.1857965733       -5.2277214535       -4.5625232668
 C        -0.7201836054       -7.6513021801       -5.3066554010
 C        -3.9714901442       -3.4369113842      -10.5086743269
 C        -1.5309219540       -2.5066160211      -10.7729702399
 C        -1.8791243196        3.1868459020       -6.7708165506
 C        -3.9790956020        4.3220170788       -7.7426226599
 C         1.8068293600       10.3843104825       -7.7906817275
 C        -0.6270377905       10.4271191908       -8.6953102957
 C         3.1593070720        8.0698909264      -15.0541639049
 C         1.1048945427        9.5430785783      -14.7330363768
 C        -2.6539089383        3.4435874288      -15.7749235040
 C        -1.9314603356        5.4926971001      -16.9686533193
 C        -6.9384395422        8.4749356174      -12.6566543984
 C        -4.8090268200        9.5685131040      -11.4026962938
 H        -6.9039170554        7.1473922243       -9.0587797821
 H        -7.1123126203        8.7154638654       -9.8005350889
 H        -5.4502624423        8.3294271586       -8.8918435005
 H        -4.8402253498        8.9748491451      -14.8548340478
 H        -5.8340251982        7.5311004006      -14.9054867045
 H        -2.8822777888        7.8259565284      -15.2773202089
 H        -3.8148110438        7.3097340778      -16.4435721693
 H         0.6608483167        4.6999815513      -15.8831498226
 H         0.6755155291        3.6832534184      -14.4906397992
 H         2.3166664644        5.5600207385      -14.7904804497
 H         1.5868725524        5.4896936586      -13.1945287564
 H         2.0463918565       10.5962344401      -12.6795140330
 H         3.7774321285       10.0588506650      -12.2508703859
 H         2.6421360122       10.9358488051      -10.3675675182
 H         3.2494720802        9.3897074752      -10.0745881986
 H        -0.4831010416        6.8449310203       -9.8552627765
 H        -1.5162087037        7.8476581219       -8.7538677559
 H        -1.1062936392        6.3176589613       -6.9970243017
 H         0.1018722321        5.4751549134       -7.7256971881
 H        -3.9928437860        1.1580451775       -8.4133959733
 H        -2.3431272527        1.0302466096       -7.7922186442
 H        -1.6563592155        0.0137284470       -9.9528630887
 H        -3.1957137532        0.2640535163      -10.7081266948
 H        -3.9455947621       -4.6001054847       -7.8439847473
 H        -4.0798992225       -2.8944846095       -7.2149831872
 H        -3.3853308985       -4.4145261869       -5.2430297898
 H        -1.8432906696       -3.5451486232       -5.8181813061
 H         1.8597615986       -5.2432855818       -5.8516668290
 H         1.6112680844       -4.6604152770       -7.5514634927
 H         3.8318513653       -6.0389398744       -7.2256706149
 H         2.6948428455       -6.4379988802       -8.5847370150
 H         1.7408692349      -10.6548784758       -7.0525962274
 H         2.9363448983      -11.7303759707       -7.8742980101
 H         0.5619269908      -12.3537875994       -8.3422984273
 H         1.5696295324      -12.0690683080       -9.8161021175
 H        -3.5809894382      -12.0774078398       -9.6052437476
 H        -4.2701748012      -11.2969308236      -10.9655124497
 H        -5.6803005647      -10.7336563610       -9.3237461385
 H        -4.8626019257       -9.3329198017       -9.5055332848
 H        -6.6554113581       -8.3765777680       -7.0196950804
 H        -7.9836803936       -9.2318273543       -6.0333841456
 H        -8.9554319528       -7.7475774221       -7.6037335270
 H        -9.3656460849       -9.5604089270       -8.0719439648
 H       -10.7026205766       -6.7753051529      -12.2674180299
 H       -10.1200968047       -5.1723039018      -11.9935879730
 H       -11.6621389391       -5.0354753733       -9.9299280707
 H       -12.5546096122       -6.2369075170      -10.5184245646
 H       -16.6114000521       -5.4415638632      -11.7792341125
 H       -15.9040427755       -6.9401718600      -11.0337678489
 H       -16.3542414796       -6.8967701686      -12.7358108282
 H       -14.6928546819       -5.2061207214       -9.8302943271
 H       -15.6654749590       -3.8620811700      -10.4181012263
 H       -14.0819483050       -3.5538734643       -9.7758688283
 H       -14.2583729574       -2.2069564044      -12.3840039216
 H       -15.5473689593       -3.2589909581      -12.9615701794
 H       -13.9871437663       -3.4570801293      -13.6195517736
 H        -8.5263432322       -7.5500885728      -12.6910565449
 H        -7.2500536353       -8.5884464683      -12.1241291610
 H        -7.3410805860       -6.8264108816      -11.6478123392
 H       -10.4551711640       -9.3436508582      -10.0148630551
 H        -9.1742213732      -10.2095198082      -10.8929729255
 H       -10.3100553635       -9.2398503488      -11.8658245345
 H        -6.0497805606      -13.2577586605       -6.6152924709
 H        -4.3973541277      -12.9005090207       -7.0506400408
 H        -5.5093259235      -12.5092315691       -8.1891531223
 H        -6.2023458737      -11.5418189055       -4.7907280661
 H        -5.7111998065       -9.8524766802       -4.9630492900
 H        -4.5017085903      -11.1326880522       -4.6830928462
 H         0.6803011636      -10.7588782312      -11.7938410940
 H        -0.1286316748       -9.2932235028      -11.4810879818
 H        -0.8288202409      -10.4615181235      -12.4544149268
 H        -0.5045360202      -12.9614355816      -11.1582825663
 H        -2.1896633748      -12.7277558482      -11.1390961279
 H        -1.2998903915      -13.1638953075       -9.5483454179
 H         4.6376699513       -7.8444526859       -9.4574787723
 H         5.6446139590       -9.0862392660       -8.7550626433
 H         5.4023451207       -7.5215770412       -7.7737312905
 H         3.9517170506      -10.0749433822       -5.7151957626
 H         5.1718735861       -8.8565106730       -6.1653418585
 H         5.1044719589      -10.3167013115       -7.0953456798
 H         0.7575296810       -5.5824888795       -4.1952592959
 H        -0.9691722133       -5.3056671503       -3.7599879852
 H        -0.0451512862       -4.1532920559       -4.7650022811
 H         0.2298953013       -8.0289534681       -4.9169839189
 H        -0.7076858101       -8.3437436290       -6.1267352193
 H        -1.5122150559       -7.8808856588       -4.6550632812
 H        -4.4711612309       -2.8603778269      -11.3140268464
 H        -4.8590446770       -3.5397828825       -9.8234755438
 H        -3.7935403678       -4.4315258355      -10.7641788021
 H        -0.8437764359       -1.9178369035      -10.2449974692
 H        -1.9456497390       -2.0508585477      -11.6690047262
 H        -1.1090332316       -3.4626131941      -11.0559199066
 H        -0.9333003945        2.7145060211       -7.0914417487
 H        -2.4672983131        2.4130192038       -6.3322490739
 H        -1.6304915189        3.7504657962       -5.8934267684
 H        -4.7096707918        3.4715689260       -7.6971570702
 H        -4.1553201020        4.9208674903       -8.6465644870
 H        -4.0756338313        4.9840158563       -6.8828537671
 H         1.5594973211       10.5213522645       -6.7476212256
 H         2.1801942351       11.4366434177       -8.0192091875
 H         2.8325554771        9.9323159698       -7.8086444638
 H        -0.9735660247       10.7594104298       -7.7543738077
 H        -1.3043215372        9.6902446973       -9.1830272587
 H        -0.5738639743       11.2871645711       -9.3268989065
 H         3.7364988682        9.0522516482      -14.9788854044
 H         2.9994242307        7.8682803847      -16.0994361732
 H         3.8183534974        7.3039427666      -14.6440815732
 H         0.8768929341        9.2848415212      -15.7160812758
 H         1.6574804088       10.4555276840      -14.7343198314
 H         0.1910113384        9.6390810026      -14.2167663647
 H        -3.0503711499        3.0940001904      -14.8100997828
 H        -1.7483026886        2.8732275533      -16.0288930895
 H        -3.3756338441        3.3323036964      -16.5250896152
 H        -1.5129626142        6.5117838749      -16.8862971197
 H        -2.7832010673        5.5835095148      -17.6973998723
 H        -1.1949428282        4.9360721171      -17.4966248422
 H        -7.2376319571        7.5348616255      -13.0425248293
 H        -7.0328387423        9.2399877114      -13.4154443914
 H        -7.5501743965        8.8003458120      -11.8202475051
 H        -4.0344988045        9.3035401816      -10.6664920945
 H        -5.5227442950       10.1591450398      -10.9114535189
 H        -4.5327140428       10.0976063489      -12.2279830402
 Na       -3.4345497640        4.9587816901      -12.0021512182
 Na       -1.9227387015       -8.2161499471       -8.1958257452
