232

 C        -5.6623932091        7.6547751539       -9.5184254443
 C        -5.3455056165        6.9749307468      -10.8973687631
 O        -5.3076872136        5.7664441809      -10.9558688686
 C        -5.4916475457        7.8489038527      -12.1773131033
 C        -4.2096431121        7.6879871625      -12.9829801548
 O        -3.2163061639        7.2566920307      -12.3823324327
 C        -4.1977086182        7.8688924608      -14.5454841814
 C        -2.8439529452        7.0508769412      -15.0536151758
 C        -3.1060277810        5.5150476213      -15.0904609252
 O        -4.0255933293        5.0114736623      -14.4639542891
 C        -2.0396448356        4.6276844996      -15.7467169616
 C        -0.8332381959        4.7045074640      -14.7496630720
 O        -1.0318540792        4.7821899711      -13.5132347602
 C         0.5664824454        4.4856183187      -15.2684474701
 C         1.4592784519        5.4082657322      -14.4455766596
 C         1.2104898036        6.8578840407      -14.9391144136
 O         0.1101651355        7.0792035986      -15.3775557656
 C         2.1841800922        8.0177049832      -14.7839090203
 C         2.6111237763        7.9597903867      -13.2968405761
 O         3.2935159330        7.0496401439      -12.8652431664
 C         2.3447377405        9.1724590356      -12.4665525683
 C         2.8174349741        9.0148071698      -11.0106215928
 C         1.4860587409        8.8048885633      -10.1144772253
 O         0.4287738966        8.5907826741      -10.6850882859
 C         1.4479890369        8.7973660234       -8.5276312458
 C         0.5906501242        7.6716816926       -7.9980549372
 O         1.0219426891        6.9442463682       -7.0697976803
 C        -0.8739284453        7.5707545665       -8.4065902763
 C        -1.4371709088        6.2641337530       -7.8286385759
 C        -1.9984305725        5.3083421780       -8.8316884667
 O        -2.2540153824        5.8205818955       -9.9010053997
 C        -2.6223092925        3.9069250517       -8.3128579225
 C        -2.3095876324        2.9376118882       -9.5182990682
 O        -2.6935142788        2.9732111327      -10.6920184529
 C        -1.4816359770        1.6874868256       -9.0641123807
 C        -2.0140506837        0.4922710751       -9.8012404584
 C        -2.8196557756       -0.5760288567       -8.8981457012
 O        -3.5351613565       -0.2323262638       -7.9921488609
 C        -2.9333932851       -2.0630163005       -9.4299404549
 C        -2.7369944443       -3.0155757398       -8.2223336683
 O        -1.6170860045       -3.4806720379       -7.9490544154
 C        -3.9514814095       -3.4973654050       -7.4391164787
 C        -3.3351248704       -4.2226695769       -6.2339936254
 C        -2.4589689377       -5.3356801208       -6.7595003158
 O        -2.8232758541       -6.0507196359       -7.6415693533
 C        -1.0359038284       -5.5598687526       -6.0056686978
 C         0.0887471775       -6.0130132347       -7.0279684207
 O        -0.0695758235       -7.0010322365       -7.7051346684
 C         1.3590110217       -5.0746626728       -7.1919618970
 C         2.3908467167       -5.9178932929       -8.0072415456
 C         2.8580811419       -7.2411506888       -7.3082299172
 O         2.2248386820       -7.6260760723       -6.3291866289
 C         3.9213982573       -8.1139178587       -7.9877980271
 C         3.0729511181       -9.3541551908       -8.6374560044
 O         3.2508496386       -9.5411740454       -9.8438487375
 C         2.2525015775      -10.2612839753       -7.6913793896
 C         1.3265311880      -11.1729234129       -8.4822972032
 C         0.0548557329      -10.4684036775       -8.8547504960
 O        -0.5651880001       -9.9858749218       -7.9514947101
 C        -0.4180902575      -10.3558009320      -10.3829007489
 C        -1.9541194653      -10.0780976699      -10.1788790522
 O        -2.3658668457       -8.9426183461      -10.3136886677
 C        -2.9210734437      -11.1717272588       -9.7150611316
 C        -4.3944070190      -10.7356241351       -9.2826960183
 C        -4.5962720755      -10.4832996313       -7.7693747780
 O        -3.9851606514       -9.5753909977       -7.2677924744
 C        -5.6706446738      -11.3993183809       -7.0302352754
 C        -7.1560086477      -10.7795671058       -7.5231601270
 O        -8.1461164448      -11.3930171104       -7.8715003343
 C        -7.2821878574       -9.2561432758       -7.2108343217
 C        -8.4711838682       -8.4633797671       -7.6940884479
 C        -8.4110010270       -8.2916872230       -9.1976130201
 O        -7.3719304203       -8.4961070902       -9.7174024965
 C        -9.6724868579       -7.7561472929      -10.0316285465
 C       -10.1640127629       -6.3370939854       -9.6250502494
 O       -10.0043440259       -6.0416630384       -8.4521503149
 C       -10.7608812552       -5.3149716410      -10.6276915049
 C       -12.2330910113       -5.8352733464      -10.8245204601
 C       -13.1627548607       -4.6845161355      -11.3671520520
 O       -12.6053763003       -3.6924749766      -11.8095169052
 C       -14.6961781395       -4.9432351478      -11.3683261909
 C       -14.9618055861       -6.0932551812      -12.4428360673
 O       -14.3204953557       -7.1053562411      -12.1408980353
 C       -15.6504932168       -5.7996512368      -13.6505973947
 C       -15.1665830107       -5.3351117516       -9.9316474386
 C       -15.3240862314       -3.5296307428      -11.8387687523
 C        -9.2649384050       -7.7295481015      -11.5564173813
 C       -10.7508408809       -8.8103855187       -9.8592694384
 C        -5.7039767250      -12.8746237424       -7.4055359992
 C        -5.7338400686      -11.1384104133       -5.4791436301
 C         0.3212676825       -9.0668901043      -10.8505369318
 C        -0.1872872545      -11.5382066005      -11.4003909045
 C         4.7715908072       -7.3711432986       -9.0972901764
 C         4.8829988226       -8.7712941045       -6.9728746606
 C        -0.5901041187       -4.4545795842       -5.0534585229
 C        -1.1341986552       -6.7939118247       -5.0763624716
 C        -4.4177486312       -2.1421559011       -9.9328156536
 C        -1.8699713749       -2.3977420145      -10.4583467549
 C        -2.1717793739        3.4075350867       -6.8735641924
 C        -4.1165700899        4.0812702121       -8.2788515994
 C         2.9441929943        8.6839806245       -7.9523759745
 C         0.8329514899       10.1699685783       -8.0280094132
 C         3.4259243505        7.7474285322      -15.6280309262
 C         1.3508935571        9.2191145212      -15.2582521494
 C        -2.6099759112        3.1467518913      -15.7825691948
 C        -1.7335723476        5.0059060314      -17.2373516132
 C        -6.7709225899        7.2927129942      -12.9251128607
 C        -5.4825221077        9.4521177362      -11.7844244234
 H        -6.4080219296        8.3848519181       -9.8081109729
 H        -4.7482375359        8.0650043780       -9.1040877185
 H        -6.1855447111        6.9800037614       -8.8259637226
 H        -4.0967343896        8.9163863689      -14.9028347887
 H        -5.0905213879        7.4171638307      -15.0071637972
 H        -2.0236607254        7.2328854620      -14.3343013094
 H        -2.4901342324        7.4768019256      -16.0127496505
 H         0.6016141143        4.7200989260      -16.3241802925
 H         0.8193496138        3.4729260362      -15.0491078219
 H         2.5450596644        5.1133305079      -14.5186644308
 H         1.2140839761        5.3578664039      -13.3941297660
 H         1.2915539860        9.4825101147      -12.5463237684
 H         2.7346475067       10.1170784294      -12.9506798706
 H         3.4377973094        9.8884811873      -10.6561922890
 H         3.4440626318        8.1048257717      -10.9060442756
 H        -0.8609959873        7.7727088882       -9.4878519374
 H        -1.5812839513        8.3601757772       -8.0351159221
 H        -2.1504018137        6.4089239202       -7.0125882395
 H        -0.5194401884        5.7436601974       -7.3517067016
 H        -1.3970836802        1.4670759689       -7.9885812152
 H        -0.4259832778        1.7470023823       -9.4114654278
 H        -1.1518175106       -0.0191896632      -10.2009299266
 H        -2.5856162521        0.8062160790      -10.6644776635
 H        -4.6108496784       -4.1439228417       -8.0781611864
 H        -4.5012006567       -2.6114502347       -7.1534035425
 H        -4.1423814175       -4.6903141185       -5.6730692971
 H        -2.8826161897       -3.5463923663       -5.5713921518
 H         1.7340355702       -4.5941397374       -6.2933244410
 H         1.0673180285       -4.2585032058       -7.8675295051
 H         3.2302677943       -5.2409442505       -8.1227925176
 H         2.2145463429       -6.0615966323       -9.0911853415
 H         1.6893504258       -9.7967415706       -6.9148522204
 H         3.0137905601      -10.8186648416       -7.1575745895
 H         0.9626268645      -12.0713811993       -7.9284266428
 H         1.7329206967      -11.5077597609       -9.3673373459
 H        -2.4309387160      -11.7771111629       -8.8388254145
 H        -3.0008287233      -11.7177122661      -10.6381042362
 H        -5.2009466732      -11.4718665178       -9.5439357588
 H        -4.4837096672       -9.7221618225       -9.7562835348
 H        -6.3178102238       -8.7587419281       -7.4450361308
 H        -7.2574843655       -9.1828623102       -6.1082687427
 H        -8.5384027161       -7.4696817363       -7.3075972983
 H        -9.3592342731       -8.9117454559       -7.3554240365
 H       -10.2664144839       -5.2582894392      -11.5893980419
 H       -10.7228082969       -4.3065917042      -10.0688556055
 H       -12.6181822940       -6.0653421477       -9.8387020574
 H       -12.2492952588       -6.6975452846      -11.5839803548
 H       -14.9577757398       -5.7447768727      -14.5097736291
 H       -16.3001112812       -4.9361658750      -13.6018981723
 H       -16.2710208959       -6.5993331831      -13.9827011506
 H       -14.3430199013       -5.8111827633       -9.3831089073
 H       -16.0934656718       -5.9148575104       -9.8439055034
 H       -15.4916108906       -4.4573897152       -9.3757678676
 H       -14.7071943936       -2.7552105669      -11.5244734841
 H       -16.4133799997       -3.4935740367      -11.5156362959
 H       -15.4248914402       -3.3503685137      -12.9276960587
 H        -9.9394213375       -7.1613702071      -12.1875624693
 H        -9.3076534546       -8.6860166566      -11.8579435896
 H        -8.2599592245       -7.4235893851      -11.6033849298
 H       -11.2368745201       -8.7415646188       -8.8706013551
 H       -10.3724795479       -9.7837317394      -10.0288477628
 H       -11.4287650756       -8.5101762998      -10.6143403818
 H        -6.0657281079      -13.4894887927       -6.5935720692
 H        -4.6983772145      -13.3138051342       -7.6271542636
 H        -6.3464802781      -12.9668179482       -8.3059952413
 H        -6.5851120893      -11.4476078483       -4.9337769369
 H        -5.5064643591      -10.0824186542       -5.3180318095
 H        -4.9513253513      -11.7179311624       -5.0109747341
 H         1.4050352074       -9.0285841277      -10.7310855019
 H         0.0204391838       -8.1723811429      -10.3346998446
 H         0.0755258786       -8.8864053552      -11.8628570537
 H        -0.4607648623      -12.5013516459      -10.9839351434
 H         0.8124620198      -11.5742323553      -11.7065347953
 H        -0.7613566372      -11.2297209578      -12.2265270873
 H         4.0724345922       -6.9299467565       -9.7812964687
 H         5.3198513209       -8.2081742198       -9.5229326929
 H         5.4649597678       -6.8153101787       -8.4981296885
 H         4.3088782809       -9.2738960984       -6.2018691779
 H         5.4021510357       -8.0240386094       -6.4213682802
 H         5.5828933448       -9.4140506781       -7.4644604898
 H         0.2421905657       -4.8018178674       -4.4784468905
 H        -1.4163954908       -4.1911020787       -4.4704552307
 H        -0.1662046038       -3.6435591018       -5.6423048779
 H        -0.1689575601       -7.0317007215       -4.5870379877
 H        -1.5936279606       -7.7199600642       -5.5934862271
 H        -1.7901921862       -6.6458947717       -4.1272098555
 H        -4.4241528960       -1.8638405959      -11.0015429814
 H        -5.0377293768       -1.5708280706       -9.2632155276
 H        -4.7394836279       -3.2414317847       -9.9160764101
 H        -0.9233083813       -2.2138615242       -9.9008736016
 H        -1.9354434013       -1.7281417752      -11.2683639084
 H        -1.9126581496       -3.4474217588      -10.6889056968
 H        -1.0858648166        3.1715080365       -6.8429544244
 H        -2.7104460852        2.5564246186       -6.5220333616
 H        -2.4732547091        4.1403372088       -6.0807311021
 H        -4.5562183236        3.1389424754       -7.8682895990
 H        -4.5925368258        4.3389618053       -9.2445225496
 H        -4.2979006832        4.7719625967       -7.4521076642
 H         2.9194815130        8.8846791572       -6.8707201274
 H         3.5763962681        9.4334783242       -8.3468068256
 H         3.5080979242        7.7665408730       -8.0644609575
 H         1.6631935121       10.7063117249       -7.5150138680
 H        -0.0010071989        9.9540377148       -7.4199477509
 H         0.4704548959       10.5976848520       -9.0094533968
 H         4.0253851612        8.6185453831      -15.8601621830
 H         2.9932901040        7.3935422125      -16.6234055444
 H         4.1359277027        7.0159771622      -15.2606513532
 H         1.0418346722        9.0491445936      -16.2908288311
 H         1.9704365016       10.0898330507      -15.3167981425
 H         0.5090363996        9.4811791165      -14.6408613788
 H        -3.2451684757        2.9287737157      -14.9091056042
 H        -1.8644094609        2.4296226328      -16.0678698458
 H        -3.3201809697        2.9771346998      -16.6839162830
 H        -1.4052200991        6.0430680459      -17.3383865973
 H        -2.5482785266        4.8472817627      -17.8714794806
 H        -0.9477172651        4.3258385426      -17.5819660112
 H        -6.6457310951        6.2379015130      -12.7504404631
 H        -6.8928504018        7.5935577468      -13.9710803862
 H        -7.6821602765        7.5528099740      -12.3935126033
 H        -4.6231138556        9.5118077395      -11.1895768004
 H        -6.3394673356        9.9031992208      -11.2593898712
 H        -5.3609051625       10.1732610558      -12.6026009872
 Na       -3.2672706193        4.8043060465      -11.9807923732
 Na       -2.1435405381       -8.2636820188       -8.1444793017
