232

 C        -5.7582070630        7.5923466413       -9.5580175655
 C        -5.5252114191        7.0008658568      -11.0275514737
 O        -5.1474684611        5.8402384371      -11.0838457756
 C        -5.5247999906        7.8585801290      -12.2517305427
 C        -4.1493052552        7.5189812134      -12.9636955335
 O        -3.0803667901        7.3066745956      -12.3663180630
 C        -4.1645958974        7.6788718923      -14.4497827823
 C        -2.9102877488        7.0896028651      -15.1765788200
 C        -3.1361321234        5.5770841081      -15.1210975848
 O        -4.0544301632        5.0790960019      -14.4927546194
 C        -2.0720875045        4.5797759348      -15.7813421884
 C        -0.8792008556        4.6449098094      -14.7796253265
 O        -1.1695113057        4.7591460392      -13.5975082932
 C         0.6175595637        4.4838854334      -15.2454125304
 C         1.4775998826        5.4056661825      -14.3732257661
 C         1.1389262530        6.8531801250      -14.8295774094
 O         0.0125687232        6.9952859699      -15.3055691416
 C         2.1845819461        7.9772915920      -14.8110782186
 C         2.6965610016        7.9491978241      -13.3245101866
 O         3.2383566508        6.9349622793      -12.8854122276
 C         2.3098598113        9.1384447970      -12.3939448681
 C         2.6558787634        8.9904463070      -10.9352134675
 C         1.4104530324        8.7151819241      -10.1315244848
 O         0.3483119316        8.5750999148      -10.6729866016
 C         1.4946443415        8.7696366056       -8.5718895195
 C         0.6504899097        7.6712727740       -7.9053730614
 O         1.0786045107        6.8306531917       -7.1435894009
 C        -0.8521844674        7.4614094711       -8.2850164532
 C        -1.4286863314        6.1997346900       -7.7076666831
 C        -2.0622406097        5.2852084450       -8.7901052044
 O        -2.2641565897        5.6469694735       -9.9610882111
 C        -2.5380176051        3.9053910192       -8.2830478825
 C        -2.2755076934        2.8012863910       -9.3986283477
 O        -2.6686528255        3.0289075202      -10.5323093182
 C        -1.4139869947        1.5743509977       -9.1062019103
 C        -1.8542034555        0.2881784370       -9.8114326626
 C        -2.8070383710       -0.4825366487       -8.8897850003
 O        -3.3869219773        0.0445475285       -7.9387234308
 C        -2.9228114855       -1.9627612913       -9.3898478972
 C        -2.8003271840       -2.9340152241       -8.2352725811
 O        -1.6849900201       -3.3687984084       -7.9256308277
 C        -4.0110439883       -3.3713720332       -7.4332752515
 C        -3.3707427977       -4.1795015799       -6.2400811693
 C        -2.3866032759       -5.2932740941       -6.7516398835
 O        -2.6866555527       -6.0444913327       -7.6615299640
 C        -0.9843346995       -5.5802384954       -5.9959392991
 C         0.1337436685       -5.9906437608       -7.0699095294
 O        -0.0710195688       -7.0093772107       -7.7125849132
 C         1.3357886054       -5.1790033468       -7.2602819271
 C         2.4469113675       -5.8994618336       -7.9749391239
 C         2.7959842987       -7.2042532708       -7.3643696937
 O         2.3066846291       -7.7371534879       -6.3938872767
 C         3.9048267416       -8.0850090304       -8.0422835913
 C         3.1629078446       -9.2564095486       -8.7049206722
 O         3.0469661903       -9.4177232255       -9.9049356382
 C         2.4504661699      -10.1465776948       -7.7477380988
 C         1.4701670245      -11.1590582476       -8.4323107134
 C         0.0813179422      -10.4533398107       -8.7426776147
 O        -0.5631072401       -9.8671928352       -7.9193996610
 C        -0.5039675983      -10.2862202321      -10.2853330780
 C        -2.0392052237      -10.0554341323      -10.2716392492
 O        -2.4909002640       -8.9318970342      -10.3500565677
 C        -2.9578538112      -11.2603266426       -9.8336426585
 C        -4.3484959308      -10.7983974386       -9.4311335511
 C        -4.6388366126      -10.6156517590       -7.8650234059
 O        -4.0616716593       -9.7288919944       -7.1773487943
 C        -5.7973516794      -11.3554617498       -7.1180821752
 C        -7.1914891428      -10.6750254082       -7.5333796495
 O        -7.9952236327      -11.3925983185       -8.0010355867
 C        -7.2819168711       -9.1747062847       -7.1638945605
 C        -8.4726706622       -8.4398277985       -7.6611920830
 C        -8.3828174444       -8.2738585474       -9.2489850277
 O        -7.3258006835       -8.5168987953       -9.8204531647
 C        -9.6877691945       -7.8216197548      -10.0619985475
 C       -10.1383705008       -6.3773318301       -9.5163723501
 O       -10.0812962836       -6.0018809464       -8.3563572368
 C       -10.8571474326       -5.4412261881      -10.4820925293
 C       -12.3149514626       -5.9175423594      -10.7856129226
 C       -13.1148239084       -4.6794267275      -11.2854243956
 O       -12.6796875446       -3.6561402780      -11.7145904931
 C       -14.6931654759       -4.8822554316      -11.2760979479
 C       -14.8560058268       -6.0846119305      -12.3790939083
 O       -14.4867932932       -7.1862626854      -12.0384575809
 C       -15.4846027444       -5.8791016063      -13.7455625877
 C       -15.2590753193       -5.3724880839      -10.0160372998
 C       -15.3436225722       -3.5789979079      -11.7315166137
 C        -9.3078911503       -7.8005500980      -11.5916422372
 C       -11.0243035963       -8.7483359942       -9.7590234096
 C        -5.9062701979      -12.8588666132       -7.4054126647
 C        -5.6914298385      -11.1817368055       -5.5630586375
 C         0.2297012044       -9.0096310638      -10.6886504223
 C        -0.0961869472      -11.5044748394      -11.1697738569
 C         4.7818255096       -7.2743364725       -9.0744311461
 C         4.8182849985       -8.5902250054       -6.8808335716
 C        -0.4969113241       -4.3730075301       -5.0777958184
 C        -1.1903520991       -6.8852338447       -5.0947448602
 C        -4.4108996416       -1.9042616672      -10.0353378472
 C        -1.9126821079       -2.3287824454      -10.5525754659
 C        -1.9799741621        3.5177103971       -7.0048417617
 C        -4.1113198733        4.1544902755       -8.2480366309
 C         3.0213947152        8.5123871960       -8.1032112848
 C         1.0378914660       10.2091780757       -8.0376161938
 C         3.4395827946        7.6471431081      -15.6964829176
 C         1.6424582882        9.3185677079      -15.1611362934
 C        -2.5693236094        3.0866262619      -15.6256385676
 C        -1.7735991153        4.9755173398      -17.2449469346
 C        -6.7416944098        7.5305386805      -13.0857632175
 C        -5.6735200453        9.3688453130      -12.0876118050
 H        -6.1958770766        8.5777488547       -9.6931715006
 H        -4.7210107057        7.6019420917       -9.2461503903
 H        -6.3290144450        6.9977319742       -8.8877634590
 H        -4.0749280034        8.8137846558      -14.6006526901
 H        -5.0614246759        7.3041537593      -14.9289580619
 H        -2.0301994515        7.2722578194      -14.5975604516
 H        -2.7904844406        7.5938706425      -16.1793502537
 H         0.5212306327        4.9879844331      -16.2189857358
 H         1.0634201246        3.4792991693      -15.3105416662
 H         2.5695448243        5.2140995256      -14.6085897990
 H         1.3581764513        5.2661367102      -13.3261328445
 H         1.3184347130        9.4458483952      -12.6427743668
 H         2.7804038672       10.0816295530      -12.7261858589
 H         3.1389221268        9.9419753220      -10.4525229360
 H         3.4033412637        8.1871306489      -10.8546770476
 H        -0.8427910855        7.4666633084       -9.3708039987
 H        -1.6925796703        8.2433568397       -8.0669344395
 H        -2.1549630732        6.3407544641       -6.8876514511
 H        -0.5677752443        5.6779331296       -7.2605626633
 H        -1.3900808249        1.3762702794       -7.9711904348
 H        -0.3854015024        1.8178852273       -9.3565130674
 H        -1.0384120772       -0.2777616183      -10.1295593227
 H        -2.4983550410        0.5314090504      -10.7419275523
 H        -4.8369351935       -3.9987907551       -7.9811096470
 H        -4.4451401768       -2.4921833262       -7.1495092423
 H        -4.2762824367       -4.7000714068       -5.7892000281
 H        -2.9595026471       -3.5367865808       -5.4439747834
 H         1.5826386783       -4.8707631781       -6.2670773716
 H         1.1384258484       -4.2471078905       -7.8675326429
 H         3.2954872897       -5.2099647187       -8.0603961211
 H         2.2940119907       -6.0784033552       -9.0281786325
 H         1.9190654336       -9.7094788991       -6.8922593059
 H         3.1737454564      -10.6513748134       -7.2505824457
 H         1.1941151371      -11.9635928009       -7.6811118412
 H         1.8099750800      -11.6462786738       -9.3465643167
 H        -2.4842274557      -11.7969294611       -8.9551953798
 H        -2.9913774715      -11.8752323165      -10.8190656372
 H        -5.1553685400      -11.4229355662       -9.6964839444
 H        -4.4212607109       -9.7535405070       -9.8089396606
 H        -6.3795472162       -8.7239084186       -7.5792940202
 H        -7.0309524677       -9.0541042004       -6.0849528894
 H        -8.6914429926       -7.5211368474       -7.2362894804
 H        -9.3304325683       -8.9927511421       -7.4115689966
 H       -10.3081400872       -5.3740362137      -11.4550678932
 H       -10.9350792015       -4.4736870657      -10.0053752481
 H       -12.8388621695       -6.2771621719       -9.8941063191
 H       -12.3575527835       -6.5686294844      -11.6587302573
 H       -14.7224838652       -5.7126859146      -14.4917447835
 H       -16.2529654211       -5.1819976334      -13.8545914440
 H       -15.8645550575       -6.8360286634      -14.1441215750
 H       -14.6436945815       -6.1832510798       -9.7358681377
 H       -16.3028785679       -5.7256649837      -10.1400708027
 H       -15.4618602033       -4.6811251657       -9.1162722400
 H       -14.9132923431       -2.7249196788      -11.1731608975
 H       -16.4511571331       -3.7239208050      -11.6780925748
 H       -15.1696013285       -3.2927672403      -12.8044939020
 H       -10.0948653847       -7.3171257240      -12.1873808860
 H        -9.2186964851       -8.8402653640      -11.9156900147
 H        -8.3617609762       -7.3063238302      -11.6717957838
 H       -11.2320786624       -8.7380948803       -8.6962776556
 H       -10.8127100791       -9.7325243737      -10.0909787595
 H       -11.8036666254       -8.3582649331      -10.2881522248
 H        -6.3198297981      -13.2864059572       -6.5273936255
 H        -4.8536557326      -13.2156752298       -7.2426240871
 H        -6.2820924932      -13.2141953824       -8.3591990484
 H        -6.6359881328      -11.2843067413       -5.0031511718
 H        -5.2080340158      -10.2891266212       -5.3143381170
 H        -5.1276074529      -12.0445546866       -5.1181220822
 H         1.3169007661       -9.0640604502      -10.8679209195
 H         0.1608659805       -8.1899013261      -10.0257240435
 H        -0.2671995491       -8.6624333004      -11.5982427201
 H         0.2474281470      -12.2571662783      -10.6081984112
 H         0.7538396423      -11.1726794077      -11.7978783811
 H        -0.9100165359      -11.7449885945      -11.8199253815
 H         4.1675300085       -6.9999963679       -9.9053684609
 H         5.5044329075       -7.9340165541       -9.4024012078
 H         5.1952931529       -6.5564237037       -8.4181564510
 H         4.2440247958       -9.0755263150       -6.1287467428
 H         5.2440187789       -7.7757729911       -6.2822731071
 H         5.5646423782       -9.2954644549       -7.2695934795
 H         0.4157260945       -4.5573598756       -4.4954806577
 H        -1.3361076376       -4.0984848257       -4.5058916888
 H        -0.2655840847       -3.5766396867       -5.7297080029
 H        -0.3101762916       -7.0388784861       -4.4681335345
 H        -1.4395947142       -7.7977412074       -5.6659040462
 H        -1.9929629030       -6.8290924859       -4.3613496850
 H        -4.3937645366       -1.3287934062      -10.9542673993
 H        -5.0775570360       -1.4903857478       -9.2332611222
 H        -4.6857314690       -2.8832750175      -10.2423900940
 H        -0.8428594937       -2.3719420344      -10.2549589559
 H        -2.1006440464       -1.5533420906      -11.3336290033
 H        -2.2626353684       -3.3026593580      -10.9374643269
 H        -0.9146667125        3.3620254709       -6.9331446872
 H        -2.4720374099        2.5160041120       -6.8022757469
 H        -2.4337106862        4.0423584030       -6.1513289486
 H        -4.6001236003        3.3244185703       -7.7804724648
 H        -4.5002219188        4.3241510950       -9.2194715358
 H        -4.2841532958        4.9932266027       -7.4924465348
 H         3.1452342390        8.5530747767       -6.9897535470
 H         3.6958934353        9.2098521478       -8.5081490142
 H         3.4037530121        7.5825104061       -8.4492996484
 H         1.9248411184       10.6235777191       -7.5461422291
 H         0.2514061858        9.9571687453       -7.2906085933
 H         0.5940058761       10.7325820061       -8.9049288268
 H         3.9759937204        8.5575850850      -15.7999912430
 H         3.2099425344        7.3364300341      -16.7339858840
 H         4.2063388481        6.9591991009      -15.2600203645
 H         1.3814307717        9.3426977342      -16.2337490714
 H         2.3351062852       10.1930735902      -14.9951885681
 H         0.7041379724        9.5392098840      -14.5623623174
 H        -2.9373593341        2.8940343843      -14.6062139171
 H        -1.8011617649        2.4003808732      -16.1074926781
 H        -3.3878297126        2.8189432203      -16.2606967075
 H        -1.3210451946        5.9100561585      -17.2524417515
 H        -2.7005239239        5.0465341225      -17.7906124650
 H        -1.1475258257        4.1965798130      -17.7468184515
 H        -6.8056875266        6.4261482182      -13.1104219577
 H        -6.8193933810        8.0433538112      -14.0372483446
 H        -7.5965243532        7.8661422870      -12.5088467631
 H        -5.0674884841        9.7795007841      -11.2424325025
 H        -6.6595826770        9.7900124981      -12.0606381033
 H        -5.2785754921        9.8729427625      -13.0146237399
 Na       -3.1029743305        4.8194267838      -11.9390639222
 Na       -2.1844813951       -8.2723575281       -8.0922075254
