232

 C       -21.7642497204       -7.3396863390       -2.2352221802
 C       -20.7487602574       -6.2634872407       -2.8302338025
 O       -19.9351029616       -5.7382596683       -2.1161185257
 C       -20.9743079913       -5.9502646842       -4.4159035197
 C       -20.0254239003       -4.8182909379       -5.0015022190
 O       -19.8334309144       -3.7201100885       -4.4730361982
 C       -19.3990605582       -5.0198651329       -6.4102541202
 C       -17.8519281634       -4.7283838754       -6.5578376268
 C       -17.2421293333       -4.1809612245       -5.2909770421
 O       -17.1141428799       -4.8868828373       -4.2785118399
 C       -16.6282497060       -2.7081718239       -5.2285090620
 C       -16.3900195631       -2.3384728791       -3.7482290766
 O       -17.3477811810       -1.8137406346       -3.1949143109
 C       -15.2334952708       -2.7266503701       -2.7449333630
 C       -15.5313770662       -2.2901559863       -1.3406471665
 C       -16.3185706183       -3.3544967217       -0.4576716514
 O       -17.4048227292       -3.8413587830       -0.6826422176
 C       -15.4392360409       -3.7975190890        0.8489398721
 C       -14.0451210514       -4.3651384824        0.3210995027
 O       -13.0408316922       -3.7358959551        0.5392815739
 C       -14.0806631451       -5.5473225232       -0.7302053193
 C       -12.6732798197       -6.0175335554       -1.2302235248
 C       -12.6626770193       -6.1867571414       -2.8116691898
 O       -13.2581779273       -5.4128913835       -3.5220294849
 C       -11.7829735137       -7.2417591798       -3.4782987439
 C       -10.5243263730       -6.5210205489       -4.1748223307
 O       -10.2685454353       -5.3860038998       -3.9955823328
 C        -9.4945299022       -7.5257494240       -4.8067588716
 C        -8.0447141201       -7.3987257445       -4.2094344939
 C        -7.4038041767       -5.9701441329       -4.4741666984
 O        -7.7387356842       -5.5307016106       -5.5442952226
 C        -6.4511155958       -5.2803478437       -3.4730199438
 C        -5.0140911080       -5.7874823205       -3.5327726701
 O        -4.4276984054       -6.0352654031       -2.5169349120
 C        -4.2452881567       -5.8587496963       -4.9047298122
 C        -2.6891585760       -5.7365383917       -4.6610114295
 C        -1.9665776685       -4.4071431873       -4.9307482301
 O        -2.5728644768       -3.3760725234       -4.8810764216
 C        -0.3946488048       -4.3398205712       -5.2804211673
 C        -0.4118755424       -4.6460664810       -6.8858184770
 O        -0.5626562031       -5.7910681138       -7.2636579942
 C         0.0956671208       -3.4352351027       -7.9169001029
 C         0.0448669364       -3.9402556270       -9.3548823251
 C         1.4351174179       -4.4156791931       -9.9159735138
 O         2.3711232610       -4.3056062728       -9.1542952199
 C         1.5827982382       -5.0537838988      -11.3414903229
 C         1.5257352953       -3.7501591787      -12.2342981363
 O         0.5725404686       -3.2041397720      -12.6831028213
 C         2.9689796476       -3.1301010741      -12.4474770911
 C         2.9591162959       -1.6238823569      -12.8848431351
 C         4.3731289175       -1.0388273052      -13.0602381760
 O         4.8785903376       -0.4132821081      -12.1424207516
 C         5.1491320993       -0.9855598918      -14.4346700382
 C         4.6032678450        0.2419901944      -15.3562741573
 O         4.4735351924       -0.0129654128      -16.5529893003
 C         4.3344799606        1.5815217376      -14.8281602680
 C         5.2447344197        2.1417349316      -13.6941911556
 C         6.5605227967        2.8996291568      -14.3491917331
 O         6.8053616843        2.7075059732      -15.5123081986
 C         7.3300690748        3.8451422735      -13.4229015995
 C         6.6816672460        5.2085270191      -13.9693134668
 O         5.5622569534        5.4597057139      -13.6279182280
 C         7.3378580939        5.9701307210      -15.0550855295
 C         6.3673498307        6.7864114454      -15.9369728512
 C         5.8188286110        6.0738197797      -17.1961080050
 O         6.0880370374        4.8577026407      -17.4149467236
 C         5.1720611530        6.8119327156      -18.4213255029
 C         6.4550494244        7.1863231489      -19.3836624892
 O         7.1796087364        8.1213988260      -19.2281319481
 C         6.4475300938        6.3256282708      -20.7138667820
 C         7.9113314542        6.2886360810      -21.2795172933
 C         8.0411596006        5.2880524289      -22.3601676441
 O         7.0655672157        4.7952261491      -22.8892789002
 C         9.4613576467        4.7639951096      -22.7390011538
 C         9.4813409009        3.1509283572      -22.4950716019
 O         9.5563964869        2.2991790514      -23.3233683225
 C         9.3991833475        2.7960986979      -21.0529038673
 C         8.8869186639        1.3866300522      -20.8460180278
 C         8.2073453445        1.1202563255      -19.4882202970
 O         8.1053032218        2.0308761045      -18.6838292868
 C         7.5750574737       -0.2896470590      -19.2198878164
 C         6.0465197230       -0.0338061799      -19.6914782728
 O         5.4396641262        0.9639088753      -19.3599027270
 C         5.3296227613       -1.1446605533      -20.4345652885
 C         8.1388721363       -1.6247276407      -20.0141506988
 C         7.4474718438       -0.6563102180      -17.7130365733
 C         9.5970407183        4.8771617109      -24.2497067984
 C        10.5696959862        5.3640651593      -21.8919249262
 C         4.1164843259        5.7978482748      -19.1295985094
 C         4.3543094804        8.1571355585      -17.9947639402
 C         7.1318000608        3.5210814717      -11.9175230229
 C         8.9101043621        3.8093241528      -13.9072175289
 C         6.6200921256       -0.8203771754      -14.1992506537
 C         4.9108894046       -2.2804975871      -15.1671479210
 C         2.8870969173       -5.8105087421      -11.4807360737
 C         0.4095612274       -5.9735558709      -11.7241472794
 C         0.0217912804       -2.8917357488       -4.8689837963
 C         0.3381438682       -5.3784143502       -4.5064934133
 C        -6.2338985331       -3.7930130793       -3.8665182388
 C        -6.9663397863       -5.5628215418       -2.0882119420
 C       -11.1758259083       -8.2511057693       -2.4949520378
 C       -12.6806318413       -7.9006329080       -4.5659647071
 C       -15.1723518140       -2.4671631180        1.6168431669
 C       -16.2632931855       -4.7992519249        1.7392023740
 C       -15.2689978336       -2.8633955158       -6.0161884612
 C       -17.6149056780       -1.7839383978       -5.9606666104
 C       -20.8651324574       -7.2816867450       -5.1458209500
 C       -22.4057976025       -5.2451216457       -4.5225629968
 H       -22.7756779437       -7.0655560782       -2.6731123859
 H       -21.7295302283       -7.2535980007       -1.1720793953
 H       -21.4078279935       -8.3307853509       -2.6710089018
 H       -19.9991456730       -4.2924727641       -6.9421644023
 H       -19.5613691814       -6.0036027829       -6.8542401486
 H       -17.6952499610       -4.1255638428       -7.4080945134
 H       -17.3688688152       -5.6671441626       -6.7725042279
 H       -14.3054984487       -2.2856442716       -3.1458988676
 H       -15.0608591696       -3.7866671446       -2.9044895778
 H       -16.2154768380       -1.4306489157       -1.3527118482
 H       -14.6443005679       -2.0679637252       -0.8268941431
 H       -14.6344284768       -5.1778808099       -1.5893721138
 H       -14.6527695239       -6.3712625721       -0.3070325489
 H       -12.4298530067       -7.0275023078       -0.7195048796
 H       -11.9134344709       -5.2950226966       -0.9594095571
 H        -9.4265632568       -7.2694739763       -5.8188127603
 H        -9.9094248642       -8.5050405851       -4.7048139736
 H        -7.3624186506       -8.0719303053       -4.7069360171
 H        -8.1262117982       -7.6389256960       -3.1057246598
 H        -4.5717947172       -5.1659496476       -5.6329750117
 H        -4.5814462399       -6.7484138926       -5.3504759363
 H        -2.1831882840       -6.5177970245       -5.3437968986
 H        -2.5106307407       -6.0100168302       -3.5911550009
 H         1.1278638595       -3.3082736215       -7.6142445625
 H        -0.4425913927       -2.4913281851       -7.7661762753
 H        -0.4127016768       -3.1809348609       -9.9957092084
 H        -0.5392443275       -4.7919865950       -9.5042669410
 H         3.4951225374       -3.6938580777      -13.2507728270
 H         3.4815031607       -3.2929227906      -11.4887090051
 H         2.6888874744       -0.9885120423      -12.0579219067
 H         2.3812724958       -1.3877296575      -13.7974900818
 H         3.2643694120        1.5800751503      -14.5216244334
 H         4.3300295494        2.3441382665      -15.6931570769
 H         5.6201585998        1.3811949534      -12.9797949696
 H         4.6786709726        2.8898497759      -13.1114258832
 H         7.8877774187        5.2541029610      -15.7858351336
 H         8.1532473209        6.6660751047      -14.6917224337
 H         6.8932928537        7.7147700569      -16.2040887259
 H         5.5013389702        7.0894462091      -15.3466568849
 H         5.7517149951        6.7737907989      -21.4429169266
 H         5.9890101155        5.3732219059      -20.5221757432
 H         8.4778376605        6.2250054456      -20.3354744295
 H         8.0216828090        7.2823843205      -21.6485941989
 H         8.7111541654        3.3252898974      -20.4404739658
 H        10.4440666746        2.8495870236      -20.7756385869
 H         9.6128324793        0.5507808727      -20.9428354553
 H         8.1785927747        1.1514162530      -21.5692378102
 H         5.8767555557       -2.0576186213      -20.3522504874
 H         5.3303557876       -0.8887675795      -21.5475097392
 H         4.2697204951       -1.2468948946      -20.1964081987
 H         7.9098034867       -2.5874017561      -19.5525863502
 H         9.3190827542       -1.4607139791      -19.9234189117
 H         7.9930174531       -1.6254889622      -21.0841139841
 H         6.5953771632       -1.3120812325      -17.4677378294
 H         7.3231589999        0.1919704335      -16.9939944751
 H         8.3411543888       -1.1787297031      -17.3668087501
 H         9.7191784523        3.9124378607      -24.7676161229
 H        10.5550820215        5.2945521280      -24.5224172008
 H         8.7925468794        5.3845659175      -24.5575487634
 H        11.5400068503        4.8269512821      -22.0718320704
 H        10.3066162463        5.2414545268      -20.8248800138
 H        10.6134401412        6.4944562199      -21.8802277589
 H         3.1209393887        5.8542857678      -18.6416335311
 H         4.4637769547        4.8182073490      -19.1161579417
 H         3.8959899348        6.0507080887      -20.1644390516
 H         5.0796393451        8.9447152828      -17.9599358290
 H         3.7103514085        8.0454498305      -17.1085565219
 H         3.6435029185        8.3302299851      -18.7457304280
 H         7.7586524767        4.1231026751      -11.2948059391
 H         7.3990675007        2.4795302336      -11.8161264472
 H         6.0370813582        3.5124898061      -11.8469905132
 H         9.3665242882        3.1739326040      -13.1106906020
 H         9.4010391987        4.7793485743      -13.7449491482
 H         8.9730451219        3.3756084564      -14.9729040938
 H         6.9751743209       -0.8736840815      -13.1392508392
 H         7.0037393830        0.1859706877      -14.5575685106
 H         7.1736405258       -1.7207621850      -14.6473752594
 H         5.4130193708       -3.2157711030      -14.7996403961
 H         5.0821362587       -2.2168583592      -16.2038546262
 H         3.8501333281       -2.5992343672      -15.0082761115
 H         2.8911402794       -6.6590506818      -10.7812500514
 H         3.7383499830       -5.2456360273      -11.2397551790
 H         3.0321706357       -6.2289457061      -12.4733060321
 H        -0.4853086020       -5.4737443820      -12.0805115780
 H         0.2894491751       -6.4612977387      -10.8077251746
 H         0.6493294351       -6.7602830727      -12.4196002607
 H        -0.1256383654       -2.7801460664       -3.7664008971
 H        -0.4722844827       -2.1238019728       -5.4848173563
 H         1.0840516738       -2.6865050156       -5.0248987203
 H         0.3668037207       -6.4083159547       -5.0100682272
 H        -0.1526777540       -5.5036040589       -3.5224665660
 H         1.3903136617       -5.0893793785       -4.3022880730
 H        -5.6413523431       -3.5422406584       -4.7814575494
 H        -5.9165617804       -3.1867435770       -2.9508615225
 H        -7.2422222058       -3.4043618113       -4.0562300681
 H        -8.0718769475       -5.4593674274       -1.9585474547
 H        -6.5446677506       -4.7590551155       -1.4387423008
 H        -6.6819192850       -6.4814710942       -1.6591819909
 H       -11.9767350122       -8.5280409889       -1.8589544385
 H       -10.4384377341       -7.6904185660       -1.8679708655
 H       -10.8782923649       -9.2622950007       -2.8855267207
 H       -13.7312371100       -8.0603537949       -4.1893051591
 H       -12.4759869598       -8.9161293998       -4.7277608244
 H       -12.6204493502       -7.3024646994       -5.4231468670
 H       -15.1097364464       -2.7601615870        2.6871061999
 H       -15.8955836019       -1.7006929313        1.5510705685
 H       -14.1877165664       -2.0745478267        1.3988524409
 H       -15.8967711731       -5.8242013724        1.5251980763
 H       -17.3428300373       -4.5858851726        1.4982238296
 H       -16.0897419962       -4.6727669045        2.8318895759
 H       -15.3817762220       -3.8375047597       -6.5869701928
 H       -14.3546829071       -2.9403418401       -5.4142760966
 H       -15.1018819259       -2.0008602612       -6.6245741474
 H       -18.4718664998       -1.4559435304       -5.2537463359
 H       -17.9797826533       -2.2449675208       -6.7990970531
 H       -16.9618400661       -1.0805344411       -6.3325620568
 H       -19.8353597324       -7.6718640295       -5.3021531570
 H       -21.3084040546       -7.1750540973       -6.1637901442
 H       -21.3556638316       -8.1326379244       -4.7393356830
 H       -22.3027589490       -4.2213378610       -4.3847167170
 H       -23.0902003162       -5.6457379704       -3.7333068191
 H       -22.9552133324       -5.6412920256       -5.3499230480
 Na      -18.4574735544       -3.9666432542       -2.5652180601
 Na        5.9649958747        2.4251076383      -17.5349152328
