232

 C        -5.8809853544        7.5437489327       -9.5854044790
 C        -5.4845448899        7.0132631535      -11.0257569219
 O        -5.0957480468        5.8545767206      -11.1012033858
 C        -5.5671854539        7.8847876248      -12.3558747457
 C        -4.0725911521        7.5606669966      -13.0676600395
 O        -3.1640022010        7.3230714396      -12.3350133605
 C        -4.0805616700        7.7262851164      -14.5870580360
 C        -3.0249272299        6.9652132086      -15.3459491031
 C        -3.1809769770        5.5238667033      -15.1214531203
 O        -4.1109706189        5.1026325187      -14.4464680753
 C        -2.1126961423        4.5120157453      -15.7973590477
 C        -0.9564397631        4.6717152991      -14.7631504107
 O        -1.1306972527        4.6585554614      -13.5811226078
 C         0.5489185977        4.3956320905      -15.1625790297
 C         1.5108254596        5.3876055838      -14.5127339032
 C         1.1135606665        6.8249379712      -14.8777277902
 O        -0.0324193435        7.0897541311      -15.2135658586
 C         2.2288074079        8.0052724359      -14.7453969974
 C         2.7566503942        7.9132380435      -13.2447926854
 O         3.2332152325        6.8966542613      -12.7943440374
 C         2.4085371937        9.1543266740      -12.3808330836
 C         2.6044936588        8.9765432725      -10.9070809617
 C         1.2983604730        8.7089548834      -10.0916503024
 O         0.2048931180        8.5407291044      -10.5872579054
 C         1.5378471416        8.6966135613       -8.5295126109
 C         0.7242263217        7.5195697208       -7.8727901021
 O         1.2953970469        6.7520755892       -7.1630241199
 C        -0.8082646454        7.4466657854       -8.2603982789
 C        -1.4459516073        6.1990172337       -7.6876111544
 C        -2.0850519038        5.2881632280       -8.7805629547
 O        -2.1179311411        5.6220511685       -9.9256363564
 C        -2.5991970891        3.8209685890       -8.2013964295
 C        -2.2214451578        2.7831099731       -9.3638161288
 O        -2.6734231345        2.9004549043      -10.4884428749
 C        -1.2207319064        1.7330104211       -9.0487750410
 C        -1.6073324463        0.3622356703       -9.7665546399
 C        -2.6730463713       -0.3698668750       -9.0270384911
 O        -3.1492948441        0.0771046291       -8.0079088668
 C        -3.0754289999       -1.8748289801       -9.4757100858
 C        -2.8073342001       -2.8260729710       -8.2461162195
 O        -1.6776809222       -3.1837224757       -8.0566052832
 C        -3.9285994660       -3.3722183444       -7.2986341188
 C        -3.4041506766       -4.3393535496       -6.1679691376
 C        -2.3150741604       -5.2713291943       -6.6625944295
 O        -2.6689064358       -5.9789532391       -7.6356199552
 C        -1.0280967622       -5.6208269750       -5.9775254548
 C         0.0524710415       -6.0238101518       -7.0717136024
 O        -0.1515753129       -6.9825897858       -7.7911030335
 C         1.3157231370       -5.1611459026       -7.2343729364
 C         2.5045534409       -5.8445813272       -8.0021820738
 C         2.7806984559       -7.1996925278       -7.3797553663
 O         2.2582282054       -7.5709554335       -6.3571155778
 C         3.9890028674       -8.0838648934       -8.0107896706
 C         3.1976206711       -9.2607385354       -8.7980410011
 O         2.9721345653       -9.2050889734       -9.9844969934
 C         2.5103913292      -10.2688233426       -7.7794608078
 C         1.3911237577      -11.1303605040       -8.4738030279
 C         0.1036719622      -10.3746825261       -8.7005358238
 O        -0.4620040267       -9.8726357192       -7.7174146173
 C        -0.4805545025      -10.2207527976      -10.1204786440
 C        -2.0838066818      -10.0642546521      -10.0705393524
 O        -2.5735934860       -9.0145738844      -10.4063641058
 C        -3.0172520746      -11.2659392615       -9.8597094633
 C        -4.4295933337      -10.8832317883       -9.4098845323
 C        -4.6454691972      -10.6850372578       -7.9131244965
 O        -3.9242294514       -9.8528461469       -7.3111618058
 C        -5.7865851687      -11.3962270151       -7.1076374735
 C        -7.1305986426      -10.6034504229       -7.5204648112
 O        -7.9934744508      -11.1689092287       -8.1698497433
 C        -7.3048029054       -9.1098529741       -7.1849517276
 C        -8.5353325561       -8.5495736192       -7.8135175620
 C        -8.5269171315       -8.3386870375       -9.2828522115
 O        -7.4356112740       -8.4657439603       -9.9057945896
 C        -9.6874825354       -7.8193875487      -10.0120457695
 C       -10.1787214985       -6.4291754437       -9.4364677660
 O       -10.0129054805       -6.1629100073       -8.2725587974
 C       -10.8895926215       -5.4230096486      -10.4239843762
 C       -12.3254036019       -5.8407578531      -10.7509705424
 C       -13.1452202929       -4.6995515761      -11.2495702183
 O       -12.6231327402       -3.6417973924      -11.5593186876
 C       -14.7836909417       -4.9580241204      -11.3499939220
 C       -14.8422348314       -6.1484530327      -12.3303015527
 O       -14.6738100607       -7.2711735407      -11.9212645984
 C       -15.3119375310       -5.9232804600      -13.8228044277
 C       -15.4181005160       -5.4444035655      -10.0129685575
 C       -15.4358854009       -3.5985152036      -11.7101142779
 C        -9.4426334359       -7.9131687745      -11.4413778906
 C       -10.9580037357       -8.6521207077       -9.6683068416
 C        -6.0044155141      -12.8857204442       -7.5381088871
 C        -5.5394371643      -11.2060701820       -5.6420874073
 C         0.0625976548       -8.8974792310      -10.7003215172
 C        -0.0151223282      -11.4923775327      -10.9725562594
 C         4.8580151113       -7.1750308108       -9.1332492610
 C         4.8802493934       -8.4526874725       -6.8395714812
 C        -0.4838808800       -4.3695959379       -5.1670357151
 C        -1.2950634417       -6.8452434809       -5.1014667289
 C        -4.4830686970       -1.7759094833      -10.1308932571
 C        -2.1328635465       -2.3804553347      -10.5914345099
 C        -1.8498692659        3.5503127148       -6.9134205668
 C        -4.1779958436        4.1233146208       -8.1793442993
 C         2.9803170019        8.3489802450       -8.1970181720
 C         1.2418888641       10.1947960624       -8.0929864805
 C         3.3858788595        7.5028364640      -15.7369037994
 C         1.8533033941        9.4338934510      -15.1723569919
 C        -2.5605929288        3.1054784421      -15.5699980058
 C        -1.7668751764        4.9059024315      -17.2068382686
 C        -6.8303900285        7.5007344066      -13.3414222508
 C        -5.6347870392        9.4306193495      -12.2329543710
 H        -6.2858785172        8.5440381553       -9.6926343559
 H        -5.0013590176        7.3785350039       -8.9662531435
 H        -6.6125072396        6.8233748142       -9.2100489026
 H        -4.0379193411        8.7645186820      -14.9000452526
 H        -5.0255261945        7.2743220413      -14.9240362385
 H        -2.0161125847        7.2434251923      -15.0029192417
 H        -3.1371458188        7.1936503195      -16.4330094548
 H         0.5939587046        4.2483521023      -16.2630370126
 H         0.7885982226        3.4499654490      -14.5894325901
 H         2.5274827259        5.1707127924      -14.6414940615
 H         1.3108263679        5.3399796387      -13.4035103056
 H         1.4075841013        9.4285972075      -12.7336740693
 H         2.8159445252       10.0599113894      -12.7388132955
 H         3.0563802048        9.8088800966      -10.4025869495
 H         3.3052294622        8.0952738604      -10.8585529185
 H        -1.0967652637        7.6652535246       -9.3213765983
 H        -1.2904493617        8.2760781600       -7.7458494124
 H        -2.3208010032        6.3471101247       -7.0355710937
 H        -0.7008713332        5.7372845922       -7.1195807951
 H        -1.0905035055        1.5908492403       -7.9824521247
 H        -0.2453970350        2.1148071327       -9.3867049733
 H        -0.7585395198       -0.3427988863      -10.0133991663
 H        -2.1249621066        0.5738992232      -10.7462233811
 H        -4.6132054662       -3.9225218466       -7.8965983977
 H        -4.5545633841       -2.4949136654       -6.8929949597
 H        -4.3376532240       -4.8511120960       -5.8094899833
 H        -2.9828468698       -3.7069653266       -5.2830469125
 H         1.5278094463       -4.9707142698       -6.1690844789
 H         1.0983261127       -4.1972394113       -7.7177836585
 H         3.3878423811       -5.1672429306       -8.1411637460
 H         2.2200919529       -6.0234176111       -9.0193959627
 H         2.1661697781       -9.7668410334       -6.8434235076
 H         3.2285283962      -11.0103967259       -7.3002753220
 H         1.1353544406      -11.9811181838       -7.8475258606
 H         1.8431120975      -11.5816073151       -9.4568013850
 H        -2.6402219887      -11.9025624767       -9.1179521141
 H        -3.0789937964      -11.7651047188      -10.9067215944
 H        -5.1085032963      -11.6648507511       -9.5795470081
 H        -4.7715430123       -9.9516883805       -9.8187492913
 H        -6.4189406254       -8.5199616146       -7.3822673727
 H        -7.3177528904       -9.0748418336       -6.0931960051
 H        -8.7367330609       -7.5039920971       -7.4870699186
 H        -9.4627139137       -9.0187151370       -7.4232970038
 H       -10.2446572469       -5.4387680898      -11.3256614641
 H       -10.9347891807       -4.4601709379      -10.0094024549
 H       -12.8834852824       -6.2450469045       -9.8865322429
 H       -12.3683994975       -6.4116426171      -11.6108034816
 H       -14.5721402698       -5.4253638553      -14.3965396845
 H       -16.2514596260       -5.3825906323      -13.9456556129
 H       -15.4122439745       -6.8064122765      -14.4521502969
 H       -15.2959143322       -6.5472271261       -9.8506272667
 H       -16.4711231798       -5.1730141130       -9.9994488281
 H       -15.1329146768       -4.9210229656       -9.1087396076
 H       -15.3432417406       -2.9834182039      -10.7284483123
 H       -16.4174948142       -3.7513256254      -12.0559736922
 H       -14.9186446080       -2.9511359578      -12.4304779803
 H       -10.4134456737       -7.7806162246      -11.8921236815
 H        -9.0064336052       -8.9651817706      -11.7305286467
 H        -8.7517893051       -7.0771191585      -11.7403839966
 H       -11.0485450591       -8.6735786016       -8.6463230303
 H       -10.7039956982       -9.6391179019      -10.0572715840
 H       -11.8964896685       -8.2836507338      -10.1754559972
 H        -6.8205051528      -13.2398479181       -6.9114482506
 H        -5.2053610776      -13.4248964868       -7.1013433938
 H        -6.0018830841      -13.0830439060       -8.6103085393
 H        -6.5102991276      -11.2782587036       -5.1081578961
 H        -5.0144360972      -10.2800555398       -5.3598216849
 H        -5.0597854007      -12.0787269695       -5.2003957425
 H         1.0457194320       -8.9326136344      -11.1226591759
 H         0.1896663134       -8.0738576610       -9.9631771474
 H        -0.6576768406       -8.4799479502      -11.4561271725
 H         0.6441617078      -12.1615074938      -10.3428625941
 H         0.5862795026      -11.1773789623      -11.8192300503
 H        -0.9146558776      -11.9810978855      -11.3358297731
 H         4.2156922751       -7.2433881388       -9.9938652226
 H         5.7232085565       -7.7326111868       -9.4445376426
 H         5.0208685268       -6.2425372858       -8.6652569654
 H         4.2855390449       -8.8636313842       -5.9562942937
 H         5.3107720229       -7.5637404886       -6.3529214440
 H         5.5898122528       -9.2497523318       -7.1178843339
 H         0.5408007889       -4.4489564957       -4.8538405200
 H        -1.1977999446       -4.2116787077       -4.3182473399
 H        -0.5908004121       -3.5087001344       -5.8136283700
 H        -0.5162922077       -7.0683347329       -4.3665539073
 H        -1.4223242623       -7.6549668798       -5.7096928930
 H        -2.2011465119       -6.7859777515       -4.6056354513
 H        -4.5049328956       -0.8810507649      -10.7292191849
 H        -5.2097432112       -1.7231910616       -9.3338868498
 H        -4.5739061874       -2.6639646208      -10.6982026399
 H        -1.1239448980       -2.4379543736      -10.1853737556
 H        -2.1911733046       -1.6922643611      -11.5070271362
 H        -2.5374960203       -3.3965269964      -10.8612317385
 H        -0.7695483412        3.5038567244       -7.0442778247
 H        -2.1341077737        2.5723608021       -6.4197102136
 H        -2.1967901659        4.2452188193       -6.1800814208
 H        -4.7098156444        3.3228202796       -7.7206003420
 H        -4.5486031517        4.2802374904       -9.1858293882
 H        -4.3375711847        4.9602036432       -7.5249212253
 H         3.1817378203        8.1487277761       -7.1697155900
 H         3.7656497423        9.0749191482       -8.5558094570
 H         3.2304011060        7.4789869728       -8.8286599699
 H         2.1728626068       10.6195326707       -7.7961944086
 H         0.5663246088       10.0444436694       -7.2024389328
 H         0.7345930994       10.6240733065       -8.8943652621
 H         4.1597595685        8.2991527827      -15.8171631227
 H         3.0709093391        7.3190341189      -16.7071565338
 H         3.9588150653        6.6658163148      -15.3487272139
 H         1.6966898681        9.4462309884      -16.2809915330
 H         2.5318253553       10.3067676441      -14.9104783451
 H         0.8543767213        9.6954980500      -14.7090406932
 H        -2.6458284725        2.9291310864      -14.5047015900
 H        -1.9620316529        2.4359093915      -16.1940896082
 H        -3.5185555583        2.8734770736      -15.9346828254
 H        -1.1330617380        5.8100065636      -17.1884337557
 H        -2.7467178134        5.1860537152      -17.6962405841
 H        -1.3384648307        4.1013379609      -17.7564890046
 H        -6.7944807177        6.5312189034      -13.8437808584
 H        -6.8619211885        8.3235467306      -14.0641118436
 H        -7.7969835644        7.5731385984      -12.8025298677
 H        -5.1411363966        9.9964960961      -11.3736257466
 H        -6.6837370105        9.7933152421      -12.2183759210
 H        -5.3143527389        9.9010779283      -13.1670825261
 Na       -2.9416813144        4.9086819769      -12.0291108922
 Na       -2.2770782241       -8.2652712161       -7.9996032564
