232

 C       -21.6883776015       -7.2609818402       -2.2146028978
 C       -20.7421606506       -6.2436263573       -2.8614113323
 O       -19.7807175966       -5.8632295330       -2.2553027489
 C       -21.0360318614       -5.8727013875       -4.3607115432
 C       -19.9922619447       -4.8388328789       -5.0056351041
 O       -19.8137152244       -3.7455344817       -4.4455154187
 C       -19.3533278839       -5.2132799977       -6.3571648070
 C       -17.7785138025       -4.8485092754       -6.4655235311
 C       -17.2375732005       -4.2323313967       -5.1869610695
 O       -17.1863019291       -4.9142710690       -4.1628825972
 C       -16.6386725253       -2.7562735820       -5.2829507461
 C       -16.5419476004       -2.2736755586       -3.7344689007
 O       -17.3539290674       -1.5316693607       -3.2518920436
 C       -15.2554026861       -2.6469250008       -2.8648714909
 C       -15.4862716842       -2.3212776409       -1.4226498325
 C       -16.1603534429       -3.3377360524       -0.4641905946
 O       -17.3093902341       -3.6765908602       -0.6801199130
 C       -15.4299009933       -3.8183494979        0.7817363451
 C       -14.1719585378       -4.3933693033        0.1837233198
 O       -13.0384686971       -3.8996325834        0.4575747319
 C       -14.2935679246       -5.5689905791       -0.7402552350
 C       -12.9277539145       -6.0135889763       -1.2388476817
 C       -12.6932114800       -6.0412001255       -2.7585120839
 O       -13.3350133839       -5.3312891146       -3.4793738916
 C       -11.7540629452       -7.2060326768       -3.3452267986
 C       -10.4780378161       -6.6191446863       -4.0248206414
 O       -10.2871224376       -5.4098567048       -3.9583881383
 C        -9.4748110756       -7.4883613130       -4.8305720351
 C        -8.1146094995       -7.3980811386       -4.2043127607
 C        -7.4925906979       -6.0210166346       -4.5436314795
 O        -7.6674115335       -5.4042359093       -5.5944414826
 C        -6.5229657785       -5.3009678015       -3.4940724373
 C        -4.9150493818       -5.7735254299       -3.5317922343
 O        -4.4041041122       -5.7768928878       -2.4552688253
 C        -4.0764156542       -5.9488288056       -4.8358808787
 C        -2.6336883256       -5.8424341648       -4.5021180779
 C        -2.0272081505       -4.4411673375       -4.9296768898
 O        -2.6647728595       -3.4126127662       -4.8575622679
 C        -0.5113803746       -4.3846329086       -5.2470570882
 C        -0.2656541527       -4.6396597482       -6.7877279827
 O        -0.5211123762       -5.7620605856       -7.1235351366
 C         0.0727733668       -3.5389191477       -7.7935830668
 C        -0.0530515478       -3.9935744224       -9.2578107910
 C         1.4254121487       -4.3044192987       -9.8869670267
 O         2.4411260696       -4.2762303972       -9.2868422352
 C         1.5368884380       -4.9646583701      -11.3186283745
 C         1.5939690920       -3.6967402237      -12.2933138215
 O         0.5271676706       -3.1540782478      -12.5551497245
 C         3.0836373775       -3.1439870907      -12.5130112322
 C         3.0291678040       -1.6434339703      -12.9827869985
 C         4.4759321431       -0.9915005706      -12.9997121671
 O         5.1370853164       -0.5599814529      -12.0710962353
 C         5.1333419579       -1.0041050710      -14.5146750759
 C         4.6876678312        0.2363493576      -15.3488102518
 O         4.6906540541        0.1206643887      -16.5902823567
 C         4.3532569567        1.6442947295      -14.7443223181
 C         5.2925342161        2.2891770545      -13.8336234850
 C         6.5904455273        2.7764568482      -14.4526410371
 O         6.7793321322        2.7075595599      -15.6535517944
 C         7.3889821854        3.7433313675      -13.5284218883
 C         6.7457524780        5.1630369890      -14.1190394149
 O         5.6319677941        5.3366761675      -13.6185933919
 C         7.3734146791        6.1019665029      -15.1825324060
 C         6.3017102406        6.8906791366      -16.0481350945
 C         5.7679092272        6.0167406893      -17.1817545189
 O         6.0135174559        4.8075002950      -17.1301634958
 C         5.0516929087        6.6489345359      -18.4353096464
 C         6.2301865504        7.1723542794      -19.4459648420
 O         7.0106311849        7.9815133861      -19.0074845251
 C         6.4489927807        6.4439194436      -20.7009504376
 C         7.9105490773        6.1952439041      -21.2611540693
 C         7.9924507407        5.1268519119      -22.4182980619
 O         7.0515481589        4.7601372212      -23.0739201240
 C         9.5030339461        4.6862059747      -22.7643755245
 C         9.6081169246        3.1606509664      -22.3932811141
 O         9.4675611879        2.4103820826      -23.3592997403
 C         9.5197437747        2.8069515524      -20.9025573661
 C         8.8781857754        1.3240442385      -20.7858911512
 C         8.2272502990        0.9959195885      -19.4076534869
 O         7.9684584666        1.9063759782      -18.5946683053
 C         7.5508309609       -0.3300532471      -19.2119064075
 C         6.0198072691        0.0190805313      -19.6646058522
 O         5.4378313415        1.0545336927      -19.4194964016
 C         5.2703766273       -1.0534064084      -20.4307033697
 C         8.1593175330       -1.4965347245      -19.9389103168
 C         7.4670167991       -0.7955309914      -17.7667124039
 C         9.6833046185        5.0565853004      -24.3758980913
 C        10.6721775028        5.4947924660      -21.8584181958
 C         4.1894177975        5.6033151674      -19.0156863449
 C         4.3553765932        8.0252569378      -18.0110030599
 C         7.2269307980        3.6349477939      -12.0510682303
 C         8.9822062372        3.7275972032      -14.0442051251
 C         6.7125108516       -0.7159775837      -14.4009425910
 C         4.8268229794       -2.3235568728      -15.2613715655
 C         2.7784685948       -5.7994489142      -11.3566381567
 C         0.3308369298       -5.9947895729      -11.6986430673
 C        -0.0272067010       -2.9488741709       -4.7765695078
 C         0.2665830678       -5.5179373041       -4.5711709569
 C        -6.4298627152       -3.7822987646       -3.8222245566
 C        -6.9895270585       -5.4810613450       -2.0451000071
 C       -11.1555610502       -8.3388356855       -2.4470021234
 C       -12.5659028370       -7.8259444871       -4.5644730418
 C       -15.0860713225       -2.5218196437        1.6010585021
 C       -16.2610451977       -4.8174702972        1.6067281868
 C       -15.2942907512       -2.7574804203       -5.9972695805
 C       -17.6801629451       -1.7250807397       -5.9125339947
 C       -21.0045664490       -7.2301091847       -5.0212073329
 C       -22.4437878235       -5.3062876962       -4.5387821052
 H       -22.6744704256       -7.0430312141       -2.5576570510
 H       -21.5822304764       -7.1611788089       -1.1304210234
 H       -21.3239114678       -8.1963385071       -2.6481046035
 H       -19.9820633374       -4.6907090002       -7.1087912205
 H       -19.4172897932       -6.2869179632       -6.4789299181
 H       -17.6702260831       -4.1358326305       -7.2325340863
 H       -17.2244658449       -5.7381807411       -6.7711607932
 H       -14.4854391374       -2.1109806258       -3.3020799754
 H       -14.9688674307       -3.6938351929       -3.1455520857
 H       -16.1859948713       -1.5529333337       -1.3539356032
 H       -14.4994327732       -2.0343805299       -0.9342631572
 H       -14.9976154548       -5.3319964099       -1.5588086373
 H       -14.7565468427       -6.3493933805       -0.1197415139
 H       -12.6813294564       -7.0059364855       -0.8076573456
 H       -12.2079814600       -5.2532037072       -0.8325290709
 H        -9.4341734049       -6.9877816921       -5.7932073707
 H        -9.8367617443       -8.4557809928       -4.9012374021
 H        -7.3924372125       -8.1442623104       -4.5939275444
 H        -8.2789166485       -7.5341466642       -3.0921640511
 H        -4.3840732892       -5.2462653795       -5.5933769395
 H        -4.3801630053       -6.8747520678       -5.3192021360
 H        -2.1521603046       -6.6639173474       -4.9833299504
 H        -2.5187015137       -5.9057811807       -3.4041163041
 H         1.1267316361       -3.1682614017       -7.5835111954
 H        -0.6171548483       -2.7973633216       -7.5853933364
 H        -0.2809731497       -3.0716621944       -9.8453608844
 H        -0.7359110692       -4.7283142089       -9.5625096881
 H         3.5641518546       -3.7333428727      -13.3633419999
 H         3.5567961567       -3.3137548919      -11.5534557396
 H         2.5083891483       -1.0076055180      -12.3225600333
 H         2.6602897079       -1.5566979560      -13.9515630982
 H         3.3257381506        1.5948630006      -14.1933980745
 H         4.1556624959        2.3656850442      -15.6341021956
 H         5.5610445710        1.6486501421      -13.0161166435
 H         4.9091439725        3.1822663771      -13.4077817835
 H         8.0960698023        5.5687646516      -15.8781218911
 H         8.0156064257        6.9377822570      -14.6827119730
 H         6.7506882329        7.7496565343      -16.4179431334
 H         5.5524071674        7.2114573775      -15.4005181999
 H         5.8166076824        6.7368314568      -21.5682939874
 H         5.9614565888        5.5042464872      -20.3898516660
 H         8.3959108342        5.8705398889      -20.3300342552
 H         8.2537757456        7.1643357583      -21.5221413602
 H         8.7120488939        3.3859902880      -20.4424745954
 H        10.4741689971        2.8432555821      -20.3955764214
 H         9.6303065611        0.4828514481      -20.9240364398
 H         8.0820494334        1.0615989956      -21.4917358122
 H         5.7651002509       -2.0651427807      -20.3101359160
 H         5.4183725406       -0.7973490729      -21.4378083308
 H         4.2063739063       -1.0220948697      -20.3525432561
 H         7.8476237962       -2.4585472414      -19.5370111025
 H         9.2185201975       -1.4143840631      -19.7972524984
 H         8.0223162410       -1.5227810043      -21.0330689877
 H         6.5673615954       -1.2350137229      -17.4473462295
 H         7.5577357623        0.0369912655      -17.0989211195
 H         8.2966710186       -1.4180268255      -17.5242888285
 H         9.9458408960        4.2668476401      -25.0763561373
 H        10.6304154109        5.5746298052      -24.3473917134
 H         8.8674759990        5.7491180630      -24.6576672212
 H        11.7109905400        5.0758900857      -22.0135421807
 H        10.4996228786        5.5439005347      -20.7786528435
 H        10.5749063223        6.5771276646      -22.0530842177
 H         3.1430214699        5.6776785519      -18.7192872805
 H         4.6016547346        4.6309131772      -18.7844705195
 H         4.1091128227        5.6172001903      -20.1522276975
 H         5.1821062371        8.7861325155      -17.9632249414
 H         3.8140940089        7.9058621324      -17.1341269802
 H         3.5946646086        8.2917023863      -18.7493913676
 H         7.8931577209        4.3379466068      -11.6023904467
 H         7.4279133239        2.5653963309      -11.7120164502
 H         6.1609216999        3.7854054950      -11.9750626363
 H         9.5112864952        3.3497274271      -13.1422456248
 H         9.3781556740        4.8009198519      -13.9982547442
 H         9.1017540748        3.1323398666      -14.9738555599
 H         7.0535306394       -1.2863393578      -13.5042709195
 H         7.0470082321        0.3733959704      -14.1574124089
 H         7.2854571225       -1.2074881694      -15.1323053347
 H         5.1848898009       -3.2280748634      -14.8338692726
 H         5.3094206418       -2.2834935740      -16.2400493663
 H         3.7688824440       -2.5550993161      -15.3799602557
 H         2.7544605610       -6.6563344207      -10.6650414095
 H         3.6626550667       -5.2810341633      -11.1587922919
 H         2.8115230539       -6.2367073794      -12.3143847710
 H        -0.6546740481       -5.5544127777      -11.8701042192
 H         0.4131396409       -6.7180286665      -10.8861350970
 H         0.5310291944       -6.5998353820      -12.5666831568
 H        -0.4044457457       -2.7921528560       -3.7424917634
 H        -0.2553240051       -2.1286308793       -5.4438405439
 H         1.0338855932       -2.9406758133       -4.6535649378
 H        -0.1737316622       -6.4507189148       -4.7476820294
 H         0.4432554049       -5.3763470713       -3.4528933726
 H         1.2558788357       -5.5712000771       -5.0229100368
 H        -6.0623122535       -3.5873083977       -4.7979048211
 H        -5.8383756194       -3.2963430341       -3.0551822707
 H        -7.4347197659       -3.2346714600       -3.7508491231
 H        -8.0237011767       -5.2908945698       -1.9110761756
 H        -6.5155406329       -4.7643947952       -1.3618452458
 H        -6.7971736983       -6.4852365035       -1.6546522800
 H       -11.8963166942       -8.8274483195       -1.7633340602
 H       -10.3366895678       -7.9059962581       -1.9518213041
 H       -10.8741459501       -9.2441024266       -3.0583355912
 H       -13.4260222766       -8.3378968409       -4.1805488300
 H       -12.0877395691       -8.6911063552       -5.0341460965
 H       -12.7488990199       -7.0432069213       -5.2295045968
 H       -14.9442726275       -2.7740089293        2.5634417161
 H       -15.8012115464       -1.7284306979        1.6028524911
 H       -14.1614099602       -2.1475136724        1.2152936624
 H       -15.6987531380       -5.7082161611        1.6057854144
 H       -17.2693546020       -4.8460153535        1.2729987573
 H       -16.2442846078       -4.5474935339        2.6407208852
 H       -15.2401447385       -3.5258914594       -6.6857152729
 H       -14.3306884092       -2.8022475088       -5.3855770469
 H       -15.2896996750       -1.7783572908       -6.4458298359
 H       -18.3635923362       -1.5897440816       -5.0512803377
 H       -18.1954188761       -2.1209333303       -6.8212257461
 H       -17.0829066546       -0.8954832546       -6.2419367341
 H       -20.0784604928       -7.7974530987       -4.9891973001
 H       -21.3455048806       -7.2250830902       -6.1515921452
 H       -21.7142276750       -7.9308395240       -4.5791863801
 H       -22.5377835633       -4.4507200638       -3.8867886885
 H       -23.2454406404       -6.0227833777       -4.3778361256
 H       -22.5965039020       -5.2217844090       -5.6132813738
 Na      -18.4415601156       -3.9373791377       -2.6156555089
 Na        5.8571343642        2.4263265922      -17.6521054003
