232

 C        -7.1019745522        6.9956216619      -10.7906017895
 C        -5.8333943059        6.7859252396      -11.5984753912
 O        -5.0079006388        5.8851721839      -11.3793193074
 C        -5.7035475537        7.7150800768      -12.8757394245
 C        -4.2674123158        7.7671796966      -13.4315984594
 O        -3.3664247887        8.2057841923      -12.7313285191
 C        -4.0431112963        7.4389079986      -14.9681920185
 C        -2.8983968835        6.4018939674      -15.0895547306
 C        -3.3062485914        4.9196893063      -14.6705718379
 O        -4.4236254952        4.4957992601      -14.3313737130
 C        -2.0495536045        3.8603279896      -15.0295981495
 C        -0.8109103624        4.3297480480      -14.2094192299
 O        -1.0106261171        5.0718922660      -13.2417345568
 C         0.6142320903        3.8059651973      -14.7190654970
 C         1.8137017433        4.7233284922      -14.6584828993
 C         1.5217960617        6.1950044596      -15.1230825431
 O         0.4013699484        6.3566872810      -15.5725334338
 C         2.4754847649        7.3363203240      -14.8426446514
 C         2.6489650095        7.4972859455      -13.2626449270
 O         3.0329027919        6.5200699256      -12.6730069783
 C         2.3996370086        8.7876709053      -12.4713876081
 C         3.0451723601        8.7226332242      -11.0201725571
 C         1.9976704354        8.5645942529       -9.7811814070
 O         0.8539033582        9.0726309971       -9.8351027391
 C         2.4031116816        7.9562596518       -8.3505966081
 C         1.1182731512        6.9358558649       -8.2229229582
 O         1.1197588966        5.8057367422       -8.7031754703
 C        -0.2826970113        7.4821980353       -7.6901976541
 C        -1.1807421275        6.2820734106       -7.4072128076
 C        -1.5818105925        5.4890366264       -8.7295889400
 O        -1.8031725478        6.2532136712       -9.6611334048
 C        -2.1742518373        4.0775037246       -8.6871979872
 C        -1.4932830733        3.2325724522       -9.8128477504
 O        -1.6164199416        3.4857498656      -11.0045685735
 C        -0.6319210839        1.9705369794       -9.4966089390
 C        -1.0749362333        0.5988980942      -10.0139267880
 C        -2.2045857002       -0.0536278561       -9.1306850788
 O        -2.5262680800        0.4382313261       -8.0682038588
 C        -3.0498784789       -1.2868123116       -9.6809575146
 C        -2.5812535762       -2.4979384853       -8.8050212689
 O        -1.3949426547       -2.7037102740       -8.7982086368
 C        -3.5341731950       -3.3074049456       -7.9249556260
 C        -3.0097909105       -3.5909296908       -6.5066933833
 C        -2.6539025607       -5.0580342463       -6.3888458512
 O        -3.2586769096       -5.9335893041       -6.9488073713
 C        -1.2274652876       -5.4276263604       -5.8084729951
 C        -0.4036351976       -5.6996120739       -7.1521584198
 O        -0.6606317580       -6.6493975509       -7.8344239365
 C         0.6973516917       -4.7652459290       -7.6181491800
 C         1.8182199195       -5.4821468903       -8.3398874908
 C         2.6813245479       -6.2526005245       -7.2913363016
 O         2.3307806172       -6.1426433401       -6.1298040669
 C         3.7674053950       -7.2549894682       -7.7777651706
 C         2.9833718110       -8.3207494853       -8.6838525317
 O         2.7113309402       -8.2084548886       -9.8789288596
 C         2.4705318150       -9.5844136400       -7.9365927077
 C         1.6011211977      -10.4599819428       -8.8662273435
 C         0.0609394067      -10.0838220373       -9.0386730699
 O        -0.4607735593       -9.4920185803       -8.1311669532
 C        -0.5761145787      -10.2303700109      -10.4467669026
 C        -2.0970439577      -10.0734840437      -10.2868862113
 O        -2.5802872789       -8.9795218153      -10.2052468653
 C        -2.9562436186      -11.3432759134      -10.0882952675
 C        -4.3430743836      -10.9687381154       -9.4377750717
 C        -4.4384339688      -10.9298035672       -7.8867274365
 O        -3.6332243436      -10.3334731664       -7.1966590532
 C        -5.7852883317      -11.5292581105       -7.1955555082
 C        -6.9892693662      -10.8019552365       -7.8184763915
 O        -7.6597484400      -11.3792140617       -8.6093712584
 C        -7.0840764021       -9.2707067992       -7.5264951311
 C        -8.4546401170       -8.6472500629       -7.5866544177
 C        -8.8472350361       -8.2357303910       -8.9609385646
 O        -8.0019394321       -7.7599587764       -9.6570113072
 C       -10.4504474422       -8.1089022871       -9.4052614784
 C       -10.8129537850       -6.6442087856       -8.9597830722
 O       -10.4143180419       -6.1790089405       -7.9134138968
 C       -11.7078689831       -5.6944701498       -9.8788590936
 C       -13.1663167218       -5.6520355282       -9.4736565850
 C       -13.9279303115       -4.7145418458      -10.5140188088
 O       -13.6030842034       -3.5490280301      -10.6654113011
 C       -15.2440365982       -5.1529460280      -11.2337349856
 C       -14.8834222665       -6.2989475521      -12.3014269973
 O       -15.5797270281       -7.3056894786      -12.2968058939
 C       -13.7657541017       -6.2495728195      -13.2793170717
 C       -16.2199251642       -5.8752612154      -10.2042187727
 C       -15.9540807432       -3.9581653547      -11.9270034220
 C       -10.5955885715       -8.3444359955      -11.0071236067
 C       -11.3160592639       -9.1293944789       -8.6572718081
 C        -5.6980841053      -13.0150204847       -7.5780963822
 C        -5.6674992203      -11.4680398900       -5.6168421267
 C        -0.0786153522       -9.0001296975      -11.2342133457
 C        -0.0461427464      -11.5102896292      -11.1089109212
 C         4.8789984563       -6.5129566984       -8.7171568339
 C         4.5143217378       -7.9935447700       -6.6419110984
 C        -0.4593639546       -4.4262325600       -4.7914782469
 C        -1.5056336429       -6.8131001024       -5.0775733701
 C        -4.6055488074       -1.0579556713       -9.5898859086
 C        -2.6174583523       -1.6432326472      -11.1046230786
 C        -1.9973382495        3.5383237802       -7.1861013687
 C        -3.7044164489        4.1606548231       -9.0802238203
 C         3.7637267326        7.1483851647       -8.2347402676
 C         2.3783081426        9.1780043732       -7.3725263765
 C         3.8998761590        7.2106426035      -15.4572689192
 C         1.7724217313        8.6195869658      -15.4789649992
 C        -2.3772107372        2.4814937594      -14.5178243432
 C        -1.8845587399        3.9643360462      -16.5541915110
 C        -6.7880791755        7.2110023862      -13.7803353495
 C        -5.9260067046        9.3163458182      -12.7020854033
 H        -6.7522379595        7.0097241419       -9.7445740817
 H        -7.8115330002        6.1443741071      -10.8211750385
 H        -7.4802577040        7.9345645343      -11.2774330579
 H        -3.8908134567        8.3188298520      -15.5722645752
 H        -4.9308357391        6.9896051735      -15.3616040950
 H        -2.2470625795        6.7102701263      -14.2972507942
 H        -2.5143092281        6.4297021759      -16.1336856272
 H         0.4729639966        3.4620576806      -15.7329370625
 H         0.7482944803        2.8671783036      -14.1796420172
 H         2.5667945122        4.3029512441      -15.3254962357
 H         2.3031442056        4.8218578121      -13.6584412030
 H         1.3267628291        8.9898444762      -12.2523872230
 H         2.6742514714        9.5893317198      -13.1807299225
 H         3.3705009287        9.6924823264      -10.7049432525
 H         3.8166992472        8.0131935587      -11.1532219215
 H        -0.7847149372        8.1021046778       -8.4172185776
 H        -0.0586295514        8.0345161768       -6.7953069506
 H        -2.1694115667        6.3964501970       -6.9898791082
 H        -0.6742422444        5.5735812104       -6.7926021970
 H        -0.4219684640        1.8373370498       -8.4503793168
 H         0.2839015562        2.1677646682      -10.0411054883
 H        -0.2890814763       -0.1203299762       -9.9450193497
 H        -1.3278336817        0.6147550018      -11.1010982507
 H        -3.7234335725       -4.2373393658       -8.3945727939
 H        -4.6002866553       -2.7451219583       -7.8581363190
 H        -3.7968504368       -3.2395407843       -5.9576836457
 H        -2.1972342194       -2.8770084927       -6.3795009208
 H         1.2076320549       -4.2912076651       -6.7867507579
 H         0.2083290059       -4.0385979218       -8.2631712298
 H         2.4989597331       -4.7075714612       -8.8045406154
 H         1.4143337914       -6.2649286132       -8.9675910654
 H         1.8556147053       -9.1132382032       -7.1960555391
 H         3.3358498476      -10.1397354403       -7.4400418679
 H         1.7292001445      -11.4042524607       -8.5087452973
 H         2.0303418633      -10.4381258470       -9.9114173470
 H        -2.3105214852      -11.9332771666       -9.4872710417
 H        -3.0327158034      -11.8747082020      -11.0748661927
 H        -5.2079272174      -11.5304114562       -9.7418939524
 H        -4.6671593234       -9.9647531812       -9.7832717859
 H        -6.5315221990       -8.8907637638       -8.3816054030
 H        -6.4847107198       -9.0700071910       -6.6256179896
 H        -8.4258341128       -7.6528439877       -7.0384468666
 H        -9.1789969899       -9.4076397907       -7.1753103661
 H       -11.6080010193       -5.7767636286      -10.9931923149
 H       -11.2110231556       -4.7820267064       -9.7382621119
 H       -13.1679640005       -5.0921755511       -8.5007121818
 H       -13.5862757319       -6.5731806346       -9.1855241321
 H       -13.4637234465       -5.2287563709      -13.3056504240
 H       -13.8935392023       -6.4335999875      -14.3572660742
 H       -12.9460044834       -6.8880293399      -13.0132296050
 H       -16.8710668712       -5.1134353712       -9.7136099428
 H       -15.6048270732       -6.4394420688       -9.5084541381
 H       -16.8463705277       -6.4888540651      -10.7446957014
 H       -15.2070607505       -3.3140868470      -12.4401665125
 H       -16.5274175048       -3.3462235650      -11.2507132766
 H       -16.5853403434       -4.3075053764      -12.7269712987
 H       -11.6591283443       -8.3178402487      -11.3321555626
 H       -10.2629662390       -9.3891527881      -11.2187514619
 H        -9.9227854966       -7.7284387744      -11.6939370490
 H       -11.1651600620       -9.0110891703       -7.5900478279
 H       -11.2335114619      -10.1959388131       -8.8796188932
 H       -12.3945363422       -8.7972979827       -8.8262602416
 H        -6.3912096893      -13.6367316317       -6.9875957106
 H        -4.7301598405      -13.3348309412       -7.2855467910
 H        -6.0173588895      -13.2077886503       -8.5996737998
 H        -6.0711006347      -12.3866518374       -5.1639705026
 H        -6.4070951969      -10.7048940858       -5.2510903400
 H        -4.6615372240      -11.2622192244       -5.2565622155
 H         0.8585070750       -8.6040293267      -10.8912936590
 H        -0.8385619686       -8.1718500465      -11.1976581457
 H         0.1423190484       -9.2264868352      -12.2941603874
 H         0.8912360983      -11.5222879737      -11.8175241059
 H        -0.7782339992      -12.0414636777      -11.7323773920
 H         0.1825988971      -12.2252703865      -10.3216378024
 H         4.2521466355       -5.8012885741       -9.2911698465
 H         5.4958623665       -7.2762269806       -9.2844152602
 H         5.6889016316       -5.9572195704       -8.2282362712
 H         3.9427058303       -8.6431547990       -5.8962433003
 H         5.1436019193       -7.3846954377       -5.9686407001
 H         5.2363114661       -8.7476809521       -7.0232306534
 H         0.5532367588       -4.7321333429       -4.7483935963
 H        -0.8910089523       -4.2615387169       -3.7699868449
 H        -0.3220985918       -3.4434864363       -5.2416134441
 H        -0.9021313805       -7.4981717466       -5.5982394018
 H        -2.5663393244       -6.9432852019       -5.2372382724
 H        -1.1658084109       -6.8445633030       -4.0379355716
 H        -4.8937654091       -0.3968662827      -10.3941922266
 H        -4.9019049509       -0.8209734976       -8.6283306927
 H        -5.2094548958       -1.9939296399       -9.8357527341
 H        -1.6091714366       -2.0431972544      -11.1636332362
 H        -2.7278542661       -0.7515765533      -11.7952735466
 H        -3.1679649307       -2.5114103595      -11.5177066202
 H        -0.9072771725        3.5706555670       -7.0539288243
 H        -2.4108793705        2.5487617797       -7.0471260361
 H        -2.4771024877        4.1729940136       -6.4980920825
 H        -4.1327455454        3.1713282969       -9.0255300665
 H        -3.8340056703        4.4684905335      -10.1242399038
 H        -4.1984391884        4.7318505886       -8.3620823059
 H         3.7656320305        6.5907018928       -7.3154262976
 H         4.6414770645        7.8748421189       -8.3567267922
 H         3.6780333144        6.3314749497       -9.0257638841
 H         2.8929498126        9.9097032539       -7.9738601733
 H         2.9853315309        9.0059423364       -6.5025409968
 H         1.4065403422        9.5621304270       -7.1829206008
 H         4.5331206779        8.1388065061      -15.4116708404
 H         3.7055893968        7.0158720979      -16.4682775312
 H         4.4465584290        6.3544876699      -15.0820468153
 H         1.8693947635        8.6004977544      -16.6005073908
 H         2.4528660196        9.4890871640      -15.2256146157
 H         0.7309958845        8.8033521624      -15.0973857371
 H        -2.7996193276        2.4019699380      -13.5473548142
 H        -1.5063152225        1.8941068121      -14.4357931215
 H        -3.0779890237        1.8855165474      -15.1216421643
 H        -1.3546254782        4.9285816052      -16.7805297913
 H        -2.9223934785        3.9265526146      -16.9852999896
 H        -1.4233802368        3.0913255598      -16.8855656439
 H        -6.7446729321        6.1459980305      -13.9229318620
 H        -6.8007599022        7.7134356991      -14.7532127639
 H        -7.7194049160        7.4652243116      -13.2471420946
 H        -5.2140951969        9.7974127059      -11.9874158815
 H        -6.9681945707        9.5700116093      -12.3599958706
 H        -5.8095108814        9.8964477789      -13.6139669473
 Na       -2.4539072698        5.5149460394      -11.7057346812
 Na       -2.3482087463       -8.0432721415       -8.0506063468
