232

 C        -7.0116453884        6.9983384312      -10.6502807264
 C        -5.8617432071        6.7811364454      -11.6179506223
 O        -5.0704472181        5.8549508109      -11.3738776842
 C        -5.7563234997        7.6564144785      -12.9501897004
 C        -4.2462078894        7.7547043875      -13.5022014847
 O        -3.3784986630        8.2261813956      -12.8407871929
 C        -3.9100447386        7.4034719590      -14.9141095648
 C        -2.8482605775        6.2731880500      -15.0295683274
 C        -3.1646225452        4.8284183178      -14.6453361167
 O        -4.2834028078        4.4603226859      -14.4016334353
 C        -2.0359012746        3.8316586664      -14.8429042933
 C        -0.7183698640        4.3928963821      -14.1875388052
 O        -0.6526198665        5.2037920827      -13.2499305501
 C         0.6401378558        3.7550282307      -14.6945322811
 C         1.8439500962        4.6736069526      -14.6393219313
 C         1.4118320117        6.1421079452      -15.1146944527
 O         0.2653349042        6.2101102225      -15.5688400769
 C         2.3791018083        7.3114368488      -14.8898256831
 C         2.6436800654        7.4322775737      -13.2104141819
 O         3.0095602795        6.3607540361      -12.7167389810
 C         2.5066450030        8.7480544329      -12.3760882225
 C         3.0708841412        8.6213104607      -10.9126061501
 C         2.0465446639        8.7067693282       -9.7686284909
 O         0.9543381025        9.2080578215       -9.8916354283
 C         2.3401281847        7.9249225452       -8.4802397846
 C         1.1359164309        6.9904835102       -8.3210754704
 O         1.2181072922        5.8236176633       -8.6845059063
 C        -0.1564861414        7.4315584095       -7.6925895181
 C        -1.0142805822        6.2267307510       -7.4445983095
 C        -1.6806132127        5.6739672610       -8.7226391836
 O        -1.7319238036        6.3850075054       -9.7066006749
 C        -2.1168688912        4.1077396177       -8.7401720479
 C        -1.4430233478        3.2805473902       -9.7767597499
 O        -1.6454888718        3.5757714488      -10.9614661766
 C        -0.5570138345        1.9679565281       -9.3938418972
 C        -1.2431624322        0.7997811446      -10.0849320344
 C        -2.3405208384        0.0192965882       -9.1808622467
 O        -2.5469975079        0.3348318223       -8.0181150207
 C        -3.0622630367       -1.2659889189       -9.7717637806
 C        -2.5527697705       -2.4519797569       -8.7645235983
 O        -1.3411317235       -2.7414249452       -8.7807163275
 C        -3.5668325429       -3.2330146460       -7.9534008801
 C        -2.8371128870       -3.6211077467       -6.6028797951
 C        -2.4616311361       -5.0541999111       -6.5394209037
 O        -3.2266682249       -5.8834846910       -7.0542942717
 C        -1.1636241466       -5.5766936090       -5.8408280514
 C        -0.3579262403       -5.7433024497       -7.1281888375
 O        -0.6571216002       -6.6771499320       -7.8702808697
 C         0.6603319336       -4.6894893323       -7.6544273012
 C         1.7701086427       -5.3770763441       -8.3465682184
 C         2.5967186353       -6.2943102148       -7.3325673461
 O         2.3934151880       -6.1560898828       -6.1735055723
 C         3.7594747574       -7.2609017236       -7.8915366286
 C         2.9583429853       -8.2854715576       -8.7054796016
 O         2.6643559219       -7.9765116216       -9.8498452264
 C         2.4135403578       -9.6156317431       -8.0248719494
 C         1.5556035517      -10.4257405455       -8.9120188158
 C         0.1490793913       -9.8882135099       -9.0392480118
 O        -0.4713366916       -9.4391399260       -8.0787612255
 C        -0.5218968780      -10.1843046637      -10.4936958749
 C        -2.0690872296      -10.0652429753      -10.2489125280
 O        -2.5440299261       -8.9545183939      -10.1659314491
 C        -2.9950887955      -11.2941384240      -10.0771635535
 C        -4.3056346816      -10.9273044280       -9.4192671306
 C        -4.4213392468      -10.8325945776       -7.8205789322
 O        -3.6690383966      -10.0609442618       -7.2545603801
 C        -5.6033450187      -11.5759639368       -7.1902024564
 C        -6.9589077784      -10.7827805497       -7.8842030428
 O        -7.8037531719      -11.4058419210       -8.4862512095
 C        -7.1613907212       -9.2253403463       -7.5339558829
 C        -8.5890058656       -8.7040171177       -7.5401591905
 C        -8.9255353960       -8.1980444992       -8.9638217839
 O        -8.1063713167       -7.8124925508       -9.7182929759
 C       -10.4695981846       -8.1037799989       -9.2961700827
 C       -10.8276290136       -6.5620286488       -8.9548916882
 O       -10.5305387116       -6.3255423638       -7.7902587425
 C       -11.6525209340       -5.6688338037       -9.9126529788
 C       -13.1865388967       -5.6025041095       -9.4930438203
 C       -14.0239155489       -4.7246422558      -10.3645519848
 O       -13.6425888474       -3.6012399585      -10.6148287322
 C       -15.2900414838       -5.2472323768      -11.1641195641
 C       -14.9024673589       -6.3214854783      -12.2532142667
 O       -15.5376534265       -7.3520518265      -12.3459832069
 C       -13.6995748373       -6.1504187684      -13.2299165140
 C       -16.4018211597       -5.8474094555      -10.1920061003
 C       -15.9133173317       -4.0671922921      -11.9506736322
 C       -10.5939237600       -8.3786459275      -10.8017495754
 C       -11.3292116964       -9.0943577940       -8.6056104411
 C        -5.5945404369      -13.0584048587       -7.5991367877
 C        -5.7240658670      -11.3660375243       -5.6323568732
 C        -0.0064220456       -8.9698932311      -11.3476571611
 C        -0.0201761778      -11.5518836180      -11.0361615701
 C         4.7857510046       -6.4324478253       -8.5487743180
 C         4.4628623343       -7.8397061958       -6.5974612034
 C        -0.7023114116       -4.5094288089       -4.8996326642
 C        -1.4120749874       -6.8657879195       -4.9907408592
 C        -4.5569088670       -1.0198146502       -9.6730241222
 C        -2.6939575503       -1.6377009942      -11.2016752963
 C        -2.0676876297        3.4953183849       -7.2491233673
 C        -3.5890207914        4.0339493044       -9.1360642037
 C         3.6189353249        7.0238440648       -8.3878867154
 C         2.5115717851        8.9741436636       -7.3499846117
 C         3.8233435283        7.1362086730      -15.4387208880
 C         1.8062802672        8.6275207093      -15.4841012392
 C        -2.3937485566        2.3452301916      -14.4131243564
 C        -1.8834274697        3.8994188477      -16.3800385324
 C        -6.8571217510        7.3159872864      -14.0660913729
 C        -6.0373216422        9.1185876266      -12.5858777779
 H        -6.7244661067        6.4969254397       -9.7172121866
 H        -7.7684562139        6.2881261098      -11.0161053085
 H        -7.3672696927        8.0420882949      -10.7169527462
 H        -3.4430751687        8.2749095181      -15.3426982972
 H        -4.8068334320        7.2055100861      -15.5549554778
 H        -1.9923932035        6.7019978695      -14.4967188730
 H        -2.7600960547        6.2348836359      -16.0777674769
 H         0.5142830557        3.3859169662      -15.6990484893
 H         0.7471470435        2.8962627377      -14.0708601123
 H         2.6303598041        4.2657942124      -15.2174650396
 H         2.2499702691        4.8081470168      -13.5806421504
 H         1.4136453484        9.0289720241      -12.3458598420
 H         2.9688171416        9.4769009690      -13.0276032309
 H         3.7123997871        9.4188777518      -10.6355121747
 H         3.6519976097        7.6563126907      -11.0151385569
 H        -0.5997929261        7.9825926478       -8.5966394198
 H        -0.0628715894        8.0509625260       -6.8698546960
 H        -1.8961451510        6.3135021526       -6.7367442725
 H        -0.4582395320        5.3600162613       -7.0693291795
 H        -0.5154222996        1.7755428567       -8.3318747155
 H         0.5050459992        2.0315789205       -9.8258733990
 H        -0.5755139175       -0.0494279218      -10.3167976215
 H        -1.6087443990        1.1088623341      -10.9781529845
 H        -3.6440641661       -4.1611873339       -8.5140391571
 H        -4.5462727562       -2.7950223943       -7.8988380689
 H        -3.6262046023       -3.4609776019       -5.7966648846
 H        -2.1370329008       -2.8723280646       -6.4929997453
 H         1.1476634265       -4.0309971969       -6.9080427351
 H         0.0248575082       -4.1411355038       -8.3295501682
 H         2.5655959792       -4.6700364877       -8.6518893370
 H         1.3466899159       -6.0395644243       -9.0913546565
 H         1.8710417030       -9.4117501016       -7.1811497720
 H         3.3429097325      -10.1000330755       -7.8034439335
 H         1.5127288127      -11.4424590216       -8.4322097760
 H         1.9456923405      -10.5043334308       -9.8992671627
 H        -2.2584234771      -12.1405089656       -9.6757738474
 H        -3.3298542132      -11.6087894064      -11.1040867906
 H        -5.1183452340      -11.6278766782       -9.8161072607
 H        -4.6888632822       -9.9818910501       -9.8345914498
 H        -6.5984696219       -8.7428459561       -8.3714953190
 H        -6.6303386845       -9.0532826251       -6.5847473258
 H        -8.5495648727       -7.8538094352       -6.8966619422
 H        -9.2413278312       -9.4601239458       -7.2118714627
 H       -11.6720884503       -5.9992317611      -10.9635420108
 H       -11.1006567375       -4.7166517244      -10.0717188381
 H       -13.2697436168       -5.3635532356       -8.3909625708
 H       -13.6258132555       -6.6067479123       -9.5119045570
 H       -13.3572756229       -5.1014451023      -13.4260388068
 H       -13.7608618717       -6.5376376739      -14.2633129613
 H       -12.8689730595       -6.7130363329      -12.8248341656
 H       -17.0658729272       -5.0736042856       -9.8495538848
 H       -15.8490107770       -6.3246489184       -9.4276794660
 H       -16.9375864820       -6.6122495022      -10.7044131976
 H       -15.3337029044       -3.7788460175      -12.7190162941
 H       -16.0820690832       -3.2258496036      -11.2426676762
 H       -16.8821093643       -4.2880422626      -12.3787506329
 H       -11.6846034540       -8.3442109821      -11.1152009417
 H       -10.2716733286       -9.3224879060      -11.0979094297
 H        -9.9700005141       -7.6628591955      -11.3716242175
 H       -11.3639934614       -8.9389751443       -7.4334687351
 H       -11.0769294539      -10.1746865591       -8.7551841573
 H       -12.3472217691       -8.9137467031       -8.9672962210
 H        -6.5699086400      -13.5315103442       -7.5734749748
 H        -4.9560504688      -13.6638295392       -7.0087451577
 H        -5.3935898969      -13.0414824890       -8.6525140940
 H        -5.9615043109      -12.3018545330       -5.1640598937
 H        -6.6120743272      -10.6939886308       -5.3677653356
 H        -4.8060970937      -11.0245662806       -5.2007575524
 H         1.0027366593       -8.5778461253      -11.0664257829
 H        -0.7353738725       -8.1331238559      -11.1967082453
 H         0.0868760809       -9.1360762322      -12.4212310086
 H         1.0168070917      -11.5728612958      -11.2166043357
 H        -0.3173673310      -11.7262555243      -12.0568447541
 H        -0.2171179332      -12.4713515441      -10.4167548217
 H         4.3365050441       -5.6026540079       -9.1339757565
 H         5.6423287537       -7.0170300252       -8.9994054753
 H         5.3667123680       -5.9320556494       -7.7029509913
 H         3.7713090596       -8.3150425908       -5.8723157211
 H         4.9717498881       -7.1181230323       -5.9643864996
 H         5.2059034574       -8.6460094219       -6.7018259518
 H         0.2854062562       -4.6897741782       -4.5362784756
 H        -1.4188414821       -4.3938484006       -4.0678374553
 H        -0.5598006083       -3.4972562977       -5.3511281859
 H        -0.7560276458       -7.5551018955       -5.5043644112
 H        -2.5572528261       -7.0419396198       -5.0707487437
 H        -1.0101368066       -6.7998247973       -3.9531557815
 H        -4.9772664767       -0.9111229100      -10.6977138854
 H        -4.7936262590       -0.2423418916       -8.9394744078
 H        -5.1907881522       -1.8427592426       -9.2603973014
 H        -1.5894017546       -1.7047181189      -11.3692731177
 H        -3.0843315998       -0.9346887036      -11.8957977906
 H        -2.9854217633       -2.6442476619      -11.5058366683
 H        -1.0150120480        3.4741496676       -6.9532219474
 H        -2.4760258159        2.5379322580       -7.2507598194
 H        -2.6938193738        4.1090866754       -6.6033420612
 H        -4.0178276333        3.0529575328       -8.9337807469
 H        -3.6389970139        4.1130036795      -10.2078645203
 H        -4.1756414414        4.7053926080       -8.6015486113
 H         3.7285472695        6.6872934092       -7.3180672107
 H         4.4029887200        7.7456639482       -8.6369961860
 H         3.5915835389        6.0853088438       -9.0053910773
 H         3.2696089329        9.6826394609       -7.6893664229
 H         2.8079836487        8.5541315480       -6.4547553241
 H         1.5615508688        9.5470833567       -7.2462004953
 H         4.5492867269        7.9089775517      -15.1986448213
 H         3.7802118897        6.9850475481      -16.5292049406
 H         4.1501294241        6.2200939648      -15.0272461649
 H         2.0549267841        8.6009524774      -16.5619555780
 H         2.2723302975        9.5320747441      -15.1187843610
 H         0.7346237087        8.6613331201      -15.3322222406
 H        -2.9668330809        2.1699984664      -13.5193891018
 H        -1.5534544538        1.6976289869      -14.3923674216
 H        -3.0395039722        1.8496076861      -15.1833197411
 H        -1.4383402208        4.9226892658      -16.4719960568
 H        -2.8532676667        3.8051378815      -16.8699231712
 H        -1.2075225371        3.0908875865      -16.7319185624
 H        -6.6441697284        6.3491310100      -14.5024419783
 H        -6.9068503046        8.1232598143      -14.8343474670
 H        -7.8485484218        7.2584009677      -13.5751069571
 H        -5.2407552055        9.3999645899      -11.9545201520
 H        -6.9847480287        9.3726439940      -12.0166991494
 H        -6.0703803884        9.8408864516      -13.3923008162
 Na       -2.5449344614        5.5580319796      -11.6940587737
 Na       -2.4369367387       -8.0518984050       -8.0675374337
