232

 C        -6.9781098255        6.9287850368      -10.5985659877
 C        -5.8797099295        6.7131204977      -11.7689030368
 O        -4.9835306622        5.9655220087      -11.4982252629
 C        -5.7371625935        7.7335641790      -12.9372496304
 C        -4.2649310069        7.6810352075      -13.5482176814
 O        -3.4478151281        8.0748971719      -12.7319924975
 C        -3.8832908904        7.2492739283      -14.9993894448
 C        -2.7092721919        6.2575456956      -15.0747355955
 C        -3.1806828627        4.8546375630      -14.6127367869
 O        -4.2809262954        4.4627057880      -14.3208661356
 C        -1.8632564217        3.9072848399      -14.7766939631
 C        -0.5581824149        4.2763353699      -14.0696280103
 O        -0.4705426104        5.1603871876      -13.2667669087
 C         0.7206914435        3.6425455790      -14.6370124119
 C         1.8146177823        4.6789586737      -14.6206605337
 C         1.3199758393        6.0651225954      -15.0134898706
 O         0.2938546734        6.2888637173      -15.6179954663
 C         2.2841454968        7.2681984895      -14.7336878316
 C         2.6137684926        7.3408237942      -13.2214691844
 O         3.0121373135        6.3543607027      -12.6572219005
 C         2.5618240781        8.6254540300      -12.3975759655
 C         3.1310627980        8.4512909442      -11.0032091952
 C         2.0661414402        8.6802247978       -9.9575820649
 O         1.1226367635        9.3975022400      -10.0342500446
 C         2.3778733686        7.9092805169       -8.4910937275
 C         1.1921493568        6.8990623970       -8.3257464694
 O         1.3439179860        5.7677118102       -8.6992218588
 C        -0.1388939244        7.4374384215       -7.7061780847
 C        -0.9450960345        6.2383009013       -7.4276993571
 C        -1.6628884485        5.7122140526       -8.6913605750
 O        -1.7570142872        6.3290718569       -9.7113490361
 C        -2.1749285982        4.2090504328       -8.7132546142
 C        -1.3386868613        3.3552172845       -9.7183538807
 O        -1.4654330279        3.4819159127      -10.9101218068
 C        -0.6808190855        2.0451150395       -9.4092025857
 C        -1.4480107034        0.8504661354      -10.0929305412
 C        -2.3315773747        0.0226918352       -9.2097224344
 O        -2.5453970988        0.3543047157       -8.0722895880
 C        -3.0713118382       -1.2063488113       -9.8353069892
 C        -2.5688045477       -2.4254829565       -8.8905557796
 O        -1.3760684918       -2.6455512928       -8.8177982272
 C        -3.5263116648       -3.1190217566       -7.9413850490
 C        -2.7762510455       -3.6690987280       -6.6082069808
 C        -2.5651124240       -5.1446532026       -6.5964755636
 O        -3.2331272016       -5.9707050151       -7.2621295132
 C        -1.1936066579       -5.5967985372       -5.8411524288
 C        -0.3036426263       -5.7885987118       -7.1589349934
 O        -0.4795674739       -6.7218000333       -7.9482557355
 C         0.6861184308       -4.7131163339       -7.6307912086
 C         1.8966835345       -5.3133207570       -8.3640197526
 C         2.6242234275       -6.2043077441       -7.2967684857
 O         2.3501724165       -6.1773890371       -6.1059088163
 C         3.6939506009       -7.1290220581       -7.8166455389
 C         3.0128053024       -8.2079486814       -8.7351116228
 O         2.6195733244       -7.8528087868       -9.8013478756
 C         2.5329356309       -9.5232045782       -8.0462872924
 C         1.6203961199      -10.3950299667       -8.9248007263
 C         0.2029390846       -9.9107979009       -9.0441396074
 O        -0.4129140179       -9.4020883649       -8.1388673706
 C        -0.5066914999      -10.0870284881      -10.4447173170
 C        -2.0302362043      -10.0042506221      -10.2073406864
 O        -2.5462908546       -8.8902660485      -10.1553814530
 C        -2.9904563858      -11.2580847904      -10.0377234738
 C        -4.3114386268      -10.8421784372       -9.4806198783
 C        -4.4089740100      -10.6350102047       -7.8934134984
 O        -3.7634882552       -9.8014777456       -7.2548228031
 C        -5.5803788956      -11.4417783048       -7.3416776547
 C        -6.9503893811      -10.7884316680       -7.7507514716
 O        -7.8147182184      -11.4205985577       -8.3226179946
 C        -7.0573826636       -9.2654059286       -7.5257735700
 C        -8.5956531404       -8.8773847685       -7.5539719894
 C        -9.0408509104       -8.1780528285       -8.9379878249
 O        -8.1479553462       -7.8995285678       -9.7986003767
 C       -10.5444331245       -8.0827467228       -9.3145190758
 C       -11.0032594725       -6.6376774753       -8.8241222103
 O       -10.7391193778       -6.2073946727       -7.7099221021
 C       -11.6598158657       -5.7895507335       -9.7711976612
 C       -13.1788841017       -5.7697021179       -9.5343094478
 C       -14.0207240730       -4.7066303381      -10.4295667041
 O       -13.6403878368       -3.5659934912      -10.5517538741
 C       -15.2810101828       -5.3144549638      -11.0948914911
 C       -14.8788822965       -6.4806838394      -12.1422555210
 O       -15.5124141107       -7.4555125150      -12.4117711225
 C       -13.7001565358       -5.9589045716      -13.0338902139
 C       -16.4311525226       -5.7975138318      -10.1842603087
 C       -15.9274572225       -4.1576447323      -11.9535694823
 C       -10.5957228926       -8.3890386699      -10.8600790791
 C       -11.4284252000       -9.0358957088       -8.4736755620
 C        -5.6205841220      -12.9953966117       -7.5882001607
 C        -5.6866217087      -11.2905395716       -5.7692659496
 C        -0.0034458915       -9.0286346315      -11.4511848014
 C        -0.2010246978      -11.4679697354      -11.0087324385
 C         4.7195304358       -6.3314104112       -8.5752375724
 C         4.2739373561       -7.8162018374       -6.5171748689
 C        -0.7319816234       -4.4457368704       -4.8532290536
 C        -1.3422068895       -6.9837482942       -5.0851069702
 C        -4.5821674963       -0.9267965906       -9.7852872118
 C        -2.6822516677       -1.6278822840      -11.2794792934
 C        -2.0744134907        3.4980641022       -7.3119481074
 C        -3.7147487793        4.0221237402       -9.1091819502
 C         3.6102422435        6.9556127719       -8.6585730462
 C         2.5572854319        8.8507727944       -7.2440612786
 C         3.6610449121        6.9649215016      -15.3794166596
 C         1.7762151390        8.6393536089      -15.3965061830
 C        -2.3289916634        2.4778200272      -14.2969981709
 C        -1.7145644811        3.6566206333      -16.3729227811
 C        -6.7768216818        7.3042096753      -14.1458966327
 C        -6.1769589242        9.0841731036      -12.3881393001
 H        -6.7535554306        6.0875792043       -9.9781625076
 H        -7.9706460148        6.6825257121      -10.9303581749
 H        -6.8956719310        7.9195106329      -10.2295569136
 H        -3.6019111980        8.2239082304      -15.4781804764
 H        -4.7576682085        6.8902708656      -15.5909730479
 H        -1.9095444809        6.7128295336      -14.4683367592
 H        -2.4701683503        6.1425002513      -16.1098939432
 H         0.4541371748        3.3063135696      -15.6520901912
 H         1.0374739826        2.7870529132      -14.0330032223
 H         2.6821990447        4.3558561202      -15.2282969903
 H         2.1913952468        4.8374940399      -13.6264479148
 H         1.5261752663        8.9639994829      -12.3940295344
 H         3.1514567071        9.3642879010      -12.9607538792
 H         4.0083165473        9.1665903298      -10.8414188352
 H         3.5027503723        7.3906568646      -11.0379019959
 H        -0.5176910632        8.2329532167       -8.3664257591
 H         0.0722743261        7.8269327887       -6.6715092763
 H        -1.8094223842        6.4230909946       -6.7402418267
 H        -0.3706623676        5.4061041972       -6.9085694239
 H        -0.6733540701        1.8926445792       -8.3002259150
 H         0.3497351004        1.9753622048       -9.8128647766
 H        -0.7813839492        0.1375254078      -10.5977578818
 H        -2.1044646739        1.2344373040      -10.8801178454
 H        -4.0069074181       -4.0192011437       -8.3971203770
 H        -4.2329239053       -2.4412358048       -7.7322942602
 H        -3.4102543680       -3.3536449826       -5.6999007705
 H        -1.8689092529       -3.0603896595       -6.5991846248
 H         1.1126708067       -4.0972068771       -6.8310771972
 H        -0.0592525296       -4.1036779082       -8.2207459436
 H         2.6493770876       -4.6415998462       -8.6531039881
 H         1.5464335584       -6.0464049109       -9.1082621891
 H         1.9534773530       -9.3163644937       -7.1144536418
 H         3.4700367334       -9.9459362290       -7.8999937600
 H         1.6084087442      -11.4532856055       -8.4188751960
 H         2.0053031214      -10.4464388750       -9.9190836446
 H        -2.3632757590      -12.0149235963       -9.4509709825
 H        -3.2745913967      -11.7193514798      -11.0147664516
 H        -5.0699689888      -11.6019108318       -9.8004952751
 H        -4.7794983385       -9.9243729023       -9.9045570710
 H        -6.3738050250       -8.8541010228       -8.3216080822
 H        -6.6389854271       -9.0906329556       -6.5383076858
 H        -8.6792087956       -8.3072385430       -6.6982544384
 H        -9.1073585780       -9.7937931788       -7.4842140812
 H       -11.4408083755       -5.9159921777      -10.8108878499
 H       -11.2535567423       -4.7228034311       -9.6466091800
 H       -13.2835005649       -5.5061641785       -8.4923742297
 H       -13.7309610924       -6.7834425222       -9.5313386779
 H       -13.5981403780       -4.8775189517      -13.2770966289
 H       -13.7485108990       -6.4181326712      -14.0059038016
 H       -12.6974901249       -6.3425378298      -12.7132466488
 H       -17.0060746951       -4.9798725075       -9.8809085029
 H       -15.9776209318       -6.3726482467       -9.4081798199
 H       -17.0151220856       -6.5674816295      -10.7845913613
 H       -15.4679728979       -4.1420674377      -12.9590231479
 H       -15.7298297737       -3.2415025172      -11.4486191259
 H       -17.0014882517       -4.1413461661      -12.0928498836
 H       -11.6088984337       -8.3508429694      -11.1711927846
 H       -10.3068940341       -9.4011046851      -11.1449819564
 H       -10.0144756945       -7.7262687166      -11.3970610357
 H       -11.5132405886       -8.6957061301       -7.4415336927
 H       -10.9332285167      -10.0505728159       -8.3755304605
 H       -12.4242431573       -9.1938215560       -8.8820509304
 H        -6.5765334562      -13.3205513167       -7.8857714629
 H        -5.3903304280      -13.5574763545       -6.6582966538
 H        -4.9806062013      -13.2378046224       -8.4137700509
 H        -5.6291343228      -12.2864174411       -5.3244875717
 H        -6.5391956903      -10.7863897864       -5.4162651667
 H        -4.7436024708      -10.8459715454       -5.4262112624
 H         1.1131907722       -8.9178255707      -11.5347778109
 H        -0.4163436225       -8.0467746442      -11.2999233791
 H        -0.3093762492       -9.3520854808      -12.4603226324
 H         0.8117832415      -11.7387820751      -10.9435241962
 H        -0.1716378124      -11.4360362352      -12.0737944435
 H        -0.6705033953      -12.3460844478      -10.6236715904
 H         4.2691529934       -5.9084354699       -9.5108293239
 H         5.5752031809       -6.9769951842       -8.7206939432
 H         5.1549595867       -5.4974008224       -7.9712479240
 H         3.6657266924       -8.3146191113       -5.8486126759
 H         4.7508048847       -7.1124042878       -5.8419915851
 H         5.0472102268       -8.5419791871       -6.6830338835
 H         0.0652512165       -4.8156263526       -4.1404698763
 H        -1.5838341851       -4.1808318152       -4.2591847569
 H        -0.2976034668       -3.5118003113       -5.1946132092
 H        -0.6116030523       -7.6980980448       -5.6488337584
 H        -2.4064104830       -7.2068522006       -4.9421888516
 H        -0.8311070756       -6.8577782253       -4.1072103125
 H        -4.9997728460       -0.9115075329      -10.8081684345
 H        -4.8412678400       -0.0230109507       -9.0952491910
 H        -5.1856463848       -1.6438113826       -9.2875902126
 H        -1.6216959807       -1.5940956949      -11.5113116493
 H        -3.1658865307       -1.0257948414      -12.0267793166
 H        -2.9358507548       -2.6438910236      -11.5067199909
 H        -1.0632942267        3.4522046744       -7.0056555995
 H        -2.4047801235        2.4730925239       -7.5145110332
 H        -2.8407555615        3.9220549265       -6.5988837454
 H        -4.0927949238        3.0202620246       -9.0023214969
 H        -3.6807426077        4.1898021633      -10.1510523454
 H        -4.4584684911        4.6691249282       -8.5461071379
 H         3.8494411760        6.4575341462       -7.6692344878
 H         4.3992641607        7.5891857624       -8.9707220248
 H         3.3897779229        6.1785625094       -9.3611644593
 H         3.5398462783        9.2943358639       -7.0637868162
 H         2.2036573530        8.2703599074       -6.3277809740
 H         1.7807103263        9.6380464452       -7.3613125164
 H         4.3910144948        7.6555785581      -15.0994321294
 H         3.6101915816        6.8454727688      -16.4951081390
 H         3.9942291503        6.0157967803      -14.9298355963
 H         1.9769642527        8.4838185328      -16.4033564118
 H         2.0925650048        9.5979631311      -15.1019261795
 H         0.7329540969        8.5527501536      -15.2947575114
 H        -2.8428960741        2.4992657882      -13.3131566868
 H        -1.5977692407        1.5767645060      -14.3234761982
 H        -3.1049615904        2.0693581687      -14.9066621650
 H        -1.1541147336        4.4624159319      -16.7702405297
 H        -2.7184798012        3.6217416017      -16.7588503830
 H        -1.2110505260        2.6316041829      -16.5231060690
 H        -6.3077292040        6.3834205640      -14.5942440326
 H        -6.8856445119        8.1223356007      -14.8649083243
 H        -7.7739171524        6.9982560911      -13.8280034732
 H        -5.4875874791        9.3548957425      -11.6047208771
 H        -7.1318741155        9.1541202554      -11.9873199397
 H        -6.1723117460        9.8890722841      -13.1397617554
 Na       -2.7080442589        5.7068595122      -11.7995655755
 Na       -2.5832885904       -8.1148817920       -7.9925400178
