232

 C        -6.9109621429        6.7899238447      -10.7428853827
 C        -5.7922706714        6.7204743006      -11.7733484758
 O        -4.8923102328        5.9354807573      -11.6268846264
 C        -5.7686066498        7.7510804952      -12.9314977215
 C        -4.3478694724        7.7042014535      -13.4899997165
 O        -3.3958123277        7.7876540744      -12.6738640352
 C        -4.0133076943        7.2694279430      -14.9131466455
 C        -2.7102398903        6.3441052396      -15.0214604666
 C        -2.9361108219        4.8643526035      -14.7133841221
 O        -4.0342964509        4.5932897438      -14.1963219146
 C        -1.9061380790        3.7757876130      -14.8279935623
 C        -0.5334135312        4.2538915165      -14.1267831411
 O        -0.6144208831        4.9660882075      -13.1567411999
 C         0.7873406662        3.5962120668      -14.5692404248
 C         1.8492534990        4.6975738757      -14.6122220538
 C         1.3265853938        6.0673605772      -15.0348613228
 O         0.3128341992        6.2924800420      -15.6623876565
 C         2.2637612616        7.1819533771      -14.6674549983
 C         2.5988090043        7.2572094679      -13.1764544756
 O         3.0141432952        6.2933693596      -12.6109902554
 C         2.5527584440        8.6601582173      -12.4709362978
 C         3.1716930709        8.3937760089      -11.0879440101
 C         2.2352370904        8.6763875654       -9.9191955553
 O         1.3408156533        9.5127377721      -10.0876654734
 C         2.4642942846        7.8614566644       -8.5790810354
 C         1.2588992230        6.8559930826       -8.3676399689
 O         1.2673522833        5.6766569768       -8.6779580433
 C        -0.0531214580        7.3864171288       -7.7354054768
 C        -1.1028138568        6.2190920206       -7.4081905668
 C        -1.6785537698        5.5551079658       -8.7392558207
 O        -1.8268554278        6.2881674489       -9.7000479101
 C        -2.2317744318        4.0689987234       -8.7377325990
 C        -1.4658379138        3.2593088001       -9.8350761821
 O        -1.4087432602        3.7795146597      -10.9293363033
 C        -0.7406064038        1.9905078387       -9.4035278860
 C        -1.4330766064        0.8884023401      -10.1854605688
 C        -2.3653131334        0.0680143930       -9.2742076005
 O        -2.5810984002        0.3308361024       -8.1130282070
 C        -3.1189772319       -1.2454587086       -9.8360212702
 C        -2.5945745854       -2.2865010717       -8.8745071035
 O        -1.4274452824       -2.5524802632       -8.9556267609
 C        -3.5711574927       -3.0448040339       -7.8692329447
 C        -2.8102322570       -3.7174119448       -6.7054327516
 C        -2.5427183714       -5.1914084248       -6.7203260177
 O        -3.1919028443       -5.9879099527       -7.3386065968
 C        -1.2517696196       -5.6197016538       -5.9189756481
 C        -0.2631534641       -5.7358300718       -7.2661035145
 O        -0.3935699860       -6.7699955128       -7.8458340308
 C         0.6905276124       -4.6156312047       -7.5835015837
 C         1.9550367173       -5.2061328367       -8.2119916446
 C         2.6467796192       -6.1192108433       -7.1837156166
 O         2.1536650752       -6.0752086418       -6.0487723549
 C         3.7337848090       -7.0794708391       -7.7139998172
 C         2.8927604737       -8.0984717406       -8.6619077234
 O         2.6044892964       -7.8198721360       -9.8004356814
 C         2.6500190129       -9.4563632800       -8.0213740327
 C         1.7585136011      -10.3214157641       -8.9871253978
 C         0.2163758171       -9.8840324697       -9.0766513820
 O        -0.2958814409       -9.3905665287       -8.1214760145
 C        -0.5486694347      -10.1292263821      -10.5407526007
 C        -2.0479915571       -9.8545479256      -10.2041894342
 O        -2.5697149216       -8.7511821449      -10.1645660972
 C        -2.8913100692      -11.0865069693       -9.9143604395
 C        -4.3480522218      -10.7146879982       -9.5546870531
 C        -4.5763350139      -10.6118483749       -8.0076175118
 O        -3.9960225874       -9.7389949010       -7.3485240030
 C        -5.5592510609      -11.3972497236       -7.2653143989
 C        -6.9489594429      -10.7473445323       -7.7804902237
 O        -7.7986455842      -11.4683318791       -8.1525273923
 C        -7.1159157653       -9.2078418253       -7.6122541910
 C        -8.6662952472       -8.9632871949       -7.6274928036
 C        -9.0122185771       -8.4383917069       -8.9804875670
 O        -8.1755634262       -7.9469142386       -9.7475756462
 C       -10.4940294085       -8.1266100609       -9.1968765048
 C       -10.9931214513       -6.5803725929       -8.7752033888
 O       -10.9093597911       -6.3112709273       -7.6242093187
 C       -11.8075025060       -5.6269291182       -9.8071754411
 C       -13.2823974181       -5.8808966206       -9.5696360658
 C       -14.1092021471       -4.8181793152      -10.4418169142
 O       -13.6508140734       -3.6855919529      -10.4741835218
 C       -15.3309005830       -5.2966470688      -11.1497961691
 C       -14.8810353405       -6.3643427997      -12.2613169893
 O       -15.4074518111       -7.4732062190      -12.2826499129
 C       -13.6302642837       -5.9348614643      -12.9045298730
 C       -16.3618613980       -5.8508147065      -10.0650090545
 C       -15.9938685301       -4.1420505378      -12.0312593360
 C       -10.7032790646       -8.3274279709      -10.6733113868
 C       -11.5100078847       -9.0657236423       -8.3811766973
 C        -5.5633505684      -12.8619792065       -7.7089840525
 C        -5.4904816511      -11.1754496305       -5.6244304757
 C        -0.0643835683       -9.0774501656      -11.4557133791
 C        -0.3105327190      -11.5990474079      -11.0793624921
 C         4.7778396098       -6.3107044628       -8.6750668215
 C         4.2940532908       -7.8484737528       -6.4756654852
 C        -0.7529222292       -4.6257122315       -4.9224519491
 C        -1.3452462895       -7.0308415419       -5.3283857045
 C        -4.6530441500       -0.8971844447       -9.8667527967
 C        -2.6050777379       -1.5898797278      -11.2796319737
 C        -2.0935398052        3.5366072150       -7.1760227978
 C        -3.7351844853        4.1599731944       -9.0896260307
 C         3.8104219764        6.9933190159       -8.7904697104
 C         2.5656056387        8.7271389050       -7.3608334607
 C         3.6409674500        6.8160776807      -15.4058305504
 C         1.7096942287        8.5606439095      -15.2140147814
 C        -2.3272154714        2.4826257801      -14.0167159106
 C        -1.5718260913        3.4578936636      -16.3156606673
 C        -6.8321112620        7.2324769945      -14.1186345577
 C        -6.2482303406        9.1185466419      -12.4204192784
 H        -7.2245114124        5.8102243853      -10.5056287805
 H        -7.7380154526        7.2162683768      -11.2589816914
 H        -6.5181567485        7.4225022662       -9.9617523829
 H        -3.8830554455        8.2217185022      -15.5174871675
 H        -4.8677556421        6.7905001026      -15.3484941524
 H        -2.0702755075        6.8331149051      -14.2906339381
 H        -2.2952305732        6.4424855493      -16.0790567932
 H         0.5764622498        3.0565277386      -15.5063954103
 H         1.0811029267        2.8947452151      -13.7165201102
 H         2.6327153891        4.4470347129      -15.3876937769
 H         2.3801105869        4.8046199793      -13.7144005713
 H         1.5147403611        8.9699497753      -12.5245943776
 H         3.2044191441        9.4182548260      -12.9569056385
 H         4.1808489015        8.9382871127      -11.1883066277
 H         3.3581556000        7.3393544652      -11.1589938549
 H        -0.3622973361        8.1753289876       -8.3857383474
 H         0.1307154612        7.7907785126       -6.6644364320
 H        -1.9760560478        6.6759308423       -6.9426237082
 H        -0.7430801151        5.4857004933       -6.6671758053
 H        -0.8937239060        1.8803282978       -8.3039101426
 H         0.2901610236        1.9829370566       -9.6482424020
 H        -0.8023013529        0.2769509802      -10.8392805448
 H        -2.2084133006        1.4280112381      -10.9165068054
 H        -4.2617029832       -3.7417208888       -8.3106365098
 H        -4.1798328897       -2.1224124357       -7.4385819531
 H        -3.2876881737       -3.4468167557       -5.7876840825
 H        -1.8662419520       -3.0502652457       -6.7658063973
 H         0.9898779828       -4.0887582884       -6.6711896966
 H         0.1309038158       -3.8708379864       -8.2381534993
 H         2.7251009083       -4.4952978237       -8.4572569341
 H         1.6539114677       -5.8610731311       -9.0188862339
 H         1.9536985583       -9.2640415463       -7.1201311300
 H         3.7250228827       -9.7701864684       -7.8388858815
 H         1.6809316390      -11.2955755099       -8.5339256556
 H         2.2104888872      -10.3912602594      -10.0407903726
 H        -2.3769678829      -11.6107279447       -9.2221293228
 H        -3.0066988646      -11.6776591388      -10.8248580691
 H        -5.0220212154      -11.3574102195      -10.0508303582
 H        -4.7074512539       -9.7033765600       -9.7973402085
 H        -6.5814296085       -8.7218330111       -8.4306945571
 H        -6.6728723159       -8.9896928789       -6.6433974939
 H        -8.7936799445       -8.1530770978       -6.8860123824
 H        -9.2181928484       -9.8945502211       -7.3685717695
 H       -11.6834140836       -5.8029732354      -10.8842020310
 H       -11.6371326083       -4.5516853802       -9.8173252905
 H       -13.5327929904       -5.8496148731       -8.5259027464
 H       -13.6526368913       -6.8923056081       -9.8292145806
 H       -13.5869254872       -4.8787228682      -13.0740375002
 H       -13.4679127006       -6.4064389884      -13.8828781688
 H       -12.7181946165       -6.2855631106      -12.3808621151
 H       -16.6897280333       -4.9307877192       -9.5364492964
 H       -15.7992862982       -6.5692588543       -9.4263366836
 H       -17.1706167409       -6.4453261588      -10.5084599056
 H       -15.6898800992       -4.3649321067      -13.1334258036
 H       -15.7311273964       -3.1480921405      -11.7402179307
 H       -17.0874520707       -4.0813940069      -12.0090763441
 H       -11.6968672990       -8.2243148212      -10.9052679249
 H       -10.5121979219       -9.3735858666      -10.9872367832
 H       -10.1140689173       -7.6712494672      -11.2757458574
 H       -11.6293151151       -8.8240411404       -7.4039445264
 H       -11.0866291827      -10.0415049559       -8.3636775225
 H       -12.4925556928       -9.1824998837       -8.8488432927
 H        -6.4128022830      -13.0913466170       -8.3572799682
 H        -5.6948376018      -13.5477828462       -6.8554335151
 H        -4.6504235007      -13.0680270059       -8.2832161778
 H        -5.0735041305      -12.0581645001       -5.1116550400
 H        -6.4043388871      -10.8118574654       -5.2540794683
 H        -4.6881304592      -10.4516616221       -5.4842972404
 H         0.9300953135       -9.2735506931      -11.7980310698
 H        -0.0784003286       -8.0652964478      -11.0682051697
 H        -0.6673537133       -9.0873953422      -12.3912854569
 H         0.7613150365      -11.9752241199      -11.1382608985
 H        -0.4373826903      -11.6387182755      -12.1316588898
 H        -0.7377723661      -12.3770988054      -10.5629418584
 H         4.3660908626       -6.4701366155       -9.6974599278
 H         5.7799682462       -6.7248569242       -8.6144899154
 H         4.8626180360       -5.2745665970       -8.5217786974
 H         3.7522291039       -8.3553655909       -5.7307533953
 H         4.7741968403       -7.1291192539       -5.8635822625
 H         5.0783828421       -8.5087809831       -6.6573842618
 H        -0.1304522182       -5.1281687436       -4.1661758716
 H        -1.5570272333       -4.1253693732       -4.3649961416
 H        -0.1513321409       -3.7976911203       -5.2319188094
 H        -0.7879435145       -7.8040395477       -5.8954155400
 H        -2.3059656180       -7.1777669081       -4.9671073253
 H        -0.7282624805       -6.8564366535       -4.4526290676
 H        -4.9416771276       -0.6016432203      -10.8743537823
 H        -4.8737595433       -0.1621576671       -9.1148046393
 H        -5.3631579662       -1.6708471456       -9.5680694801
 H        -1.5661313713       -1.6909184006      -11.3866855673
 H        -2.8753573406       -0.7631053137      -11.9817990018
 H        -3.0583298447       -2.4604052518      -11.7576815701
 H        -1.0194089664        3.5035921116       -6.9794133024
 H        -2.4498652836        2.4469661439       -7.1377153538
 H        -2.7530294750        4.1230436115       -6.5451504772
 H        -4.2642414879        3.2011239505       -9.1634021052
 H        -3.7091572487        4.6108783346      -10.1181606877
 H        -4.3371770584        4.7531836349       -8.3444919366
 H         3.9126769495        6.4554892949       -7.8956372336
 H         4.7025076725        7.5877069894       -9.0178892055
 H         3.5613659770        6.3164197974       -9.5944082414
 H         3.6358231772        8.8763900311       -7.0332813716
 H         1.9955368370        8.1788868077       -6.5046726446
 H         2.0664132966        9.7029120115       -7.4956424560
 H         4.3788417959        7.6334864503      -15.3041454880
 H         3.4520221204        6.5827428632      -16.4389067056
 H         4.1485261379        5.9692755072      -14.8752203858
 H         1.6824291937        8.5013184014      -16.2741689476
 H         2.1751554346        9.4583137715      -14.8760773996
 H         0.7138091657        8.5448898429      -14.8453834396
 H        -2.3530163535        2.8758912604      -12.9730463630
 H        -1.6357992880        1.5847958700      -14.1169815645
 H        -3.2609011777        1.9303768622      -14.0825920723
 H        -0.8425817962        4.2046937493      -16.5480617962
 H        -2.4665809053        3.5848886009      -16.9313235897
 H        -1.1547846988        2.4939999605      -16.3948007856
 H        -6.5999665371        6.1953132574      -14.4359609140
 H        -6.7732734827        7.9748661886      -14.9040993860
 H        -7.8780143163        7.2214961898      -13.8100492658
 H        -5.6910165642        9.2600324821      -11.4720564045
 H        -7.2559895974        9.3039515757      -12.2033091035
 H        -5.9857179188        9.9301596988      -13.0678218560
 Na       -2.6786629527        5.8122972054      -11.9483313327
 Na       -2.5692864665       -8.1065349634       -7.9045507185
