232

 C        -6.9929054306        6.6434794245      -10.8770388133
 C        -5.7835648339        6.6748559911      -11.7589567861
 O        -4.9354612696        5.7921628813      -11.6450734533
 C        -5.7486406745        7.7070451158      -13.0030652503
 C        -4.3099550611        7.5409700809      -13.4689754420
 O        -3.4133526090        7.7255512325      -12.6712869498
 C        -3.9594606227        7.2374768254      -14.9524547354
 C        -2.6636534589        6.4765565320      -15.0826895451
 C        -2.8945506892        4.9788590057      -14.6554589988
 O        -3.8935950035        4.6902654926      -14.0152777383
 C        -1.8250231164        3.7151991383      -14.8096060954
 C        -0.5785302617        4.1424718123      -14.0681037655
 O        -0.7761250911        4.8425577010      -13.0790882520
 C         0.7390456228        3.5585329586      -14.4366923732
 C         1.8794555197        4.5975155613      -14.6732468028
 C         1.3995932016        6.0285081260      -15.1368114462
 O         0.2666735164        6.1330200900      -15.6287005583
 C         2.3262047274        7.2195711760      -14.7462087201
 C         2.6590350261        7.2379400649      -13.1957452837
 O         2.9881806292        6.1929881363      -12.5978920815
 C         2.6205529366        8.5827080779      -12.4639423450
 C         3.3520080485        8.4825949004      -11.0850106746
 C         2.3314798585        8.6625386711       -9.8985363654
 O         1.5010110966        9.5639309013       -9.9039878676
 C         2.4511259875        7.7102801333       -8.6656203407
 C         1.2148476906        6.7587803834       -8.4890240963
 O         1.3181403041        5.5455323567       -8.7212201548
 C        -0.0753649143        7.3650892746       -7.8016230681
 C        -1.1667392247        6.3000156504       -7.4683916908
 C        -1.7278958164        5.6181214028       -8.6974133993
 O        -1.9038795707        6.1866693891       -9.7726442675
 C        -2.2392518613        4.2307212576       -8.6375043770
 C        -1.4608511929        3.4572432954       -9.7379562954
 O        -1.4368706361        3.9270358014      -10.8567759325
 C        -0.8519300561        2.0135662610       -9.5453010605
 C        -1.4841407880        0.8019316373      -10.2823655167
 C        -2.4850473195        0.0876167156       -9.3634935757
 O        -2.5880202642        0.3788636559       -8.1762126786
 C        -3.1677980081       -1.1509175268       -9.9273042910
 C        -2.6733953017       -2.2858504455       -8.9489251951
 O        -1.4975674484       -2.6277887812       -8.9356064668
 C        -3.5604538248       -2.9158057006       -7.8522289434
 C        -2.8170020078       -3.6092505503       -6.7359293866
 C        -2.4979422840       -5.1418900220       -6.8437227767
 O        -3.2435017302       -5.9309490240       -7.4138178730
 C        -1.2208415052       -5.6700542909       -5.9693821089
 C        -0.1498771280       -5.7472433902       -7.2187766225
 O        -0.2383589719       -6.7195314819       -7.9629307613
 C         0.6432049620       -4.5430554063       -7.6437825920
 C         1.9638724161       -4.9831166406       -8.1921647394
 C         2.5661194950       -6.0004630938       -7.1282411754
 O         2.1800175641       -6.1516168951       -6.0145719035
 C         3.7009694547       -7.0496228476       -7.6722544371
 C         2.9105386690       -8.0711534867       -8.5448949613
 O         2.6177374812       -7.7222329978       -9.6835516483
 C         2.5139396739       -9.5296979657       -8.0640460483
 C         1.7409472048      -10.2964434472       -9.1195661798
 C         0.2875957244       -9.9302148298       -9.1686695353
 O        -0.2345767937       -9.4311580698       -8.1718582125
 C        -0.5246166191      -10.1288846071      -10.4787387874
 C        -2.0715029737       -9.7949907061      -10.1388326980
 O        -2.3802976244       -8.6322992893      -10.2309291406
 C        -2.9695480336      -11.0315483893       -9.7610249149
 C        -4.4510646818      -10.6173925788       -9.5274644705
 C        -4.6171309225      -10.4337063000       -8.0230910246
 O        -4.0208224314       -9.5170774210       -7.4666352312
 C        -5.5741538065      -11.4015919479       -7.2074195632
 C        -7.0104448575      -10.8403778678       -7.5775562675
 O        -7.8837447666      -11.5151934330       -8.1097168035
 C        -7.1966910049       -9.2942857977       -7.5299503510
 C        -8.6985437617       -8.8624778373       -7.5466274910
 C        -9.0576284317       -8.2399700658       -8.8594281993
 O        -8.2900372310       -8.0750742561       -9.7180163544
 C       -10.6673685133       -8.0632450847       -9.2433249679
 C       -11.1023535740       -6.7347556437       -8.7141031657
 O       -10.9981572689       -6.3361050704       -7.5513202473
 C       -11.7631913944       -5.7363026910       -9.6309682410
 C       -13.3158853223       -5.9827263210       -9.6616307420
 C       -14.1317385560       -4.8564410080      -10.3988941329
 O       -13.6936461285       -3.7348105653      -10.4413128506
 C       -15.4438075029       -5.2650582575      -11.1757142831
 C       -14.8305310328       -6.3448884953      -12.1395047355
 O       -15.2930309485       -7.4561722236      -12.2108623314
 C       -13.5328988749       -6.0249899801      -12.9359081141
 C       -16.3439188088       -5.8904811208      -10.0982290354
 C       -16.1133551753       -4.1104497921      -11.9965762442
 C       -10.9921303964       -8.3139033673      -10.7550856092
 C       -11.4852165420       -9.0299124324       -8.3861879780
 C        -5.4846591119      -12.8926603095       -7.7257869783
 C        -5.3238045604      -11.1869162334       -5.7326762354
 C        -0.0381228015       -9.0585850341      -11.5015369309
 C        -0.3494832333      -11.5096079489      -11.0261612231
 C         4.7272193611       -6.3919518126       -8.5333848855
 C         4.4414183764       -7.6801301459       -6.5804081170
 C        -0.8268333428       -4.7102552478       -4.9132941955
 C        -1.4698089575       -7.1377876308       -5.5144785471
 C        -4.6736858996       -0.9422372542       -9.9315146680
 C        -2.6352328642       -1.5290927491      -11.2842925506
 C        -2.1842952688        3.4948254588       -7.1991850031
 C        -3.7250211423        4.2721639426       -8.9982369596
 C         3.8855400800        6.9513027343       -8.7058548280
 C         2.6654026424        8.7294689109       -7.4819929979
 C         3.6966026536        6.8829865391      -15.4819599209
 C         1.6654196094        8.5234769631      -15.1652361748
 C        -2.2807975430        2.5831260054      -13.8794428821
 C        -1.5463310451        3.2555620348      -16.3445587652
 C        -6.8869578940        7.2330974158      -13.9050820197
 C        -6.1799641957        9.1570880970      -12.5708907062
 H        -7.6412979631        5.8120621712      -11.1439277532
 H        -7.5672964759        7.5318456183      -11.1534580318
 H        -6.5231186015        6.6746734322       -9.8670526797
 H        -4.0549136640        8.1380656705      -15.5258651663
 H        -4.7157795824        6.5544802155      -15.3245198646
 H        -1.9740130234        6.9951702319      -14.3814961169
 H        -2.2966980674        6.5380607183      -16.1522598418
 H         0.4996023658        2.9136883858      -15.2878747912
 H         1.0658911919        2.9954457280      -13.5336285792
 H         2.4452082741        4.2269100427      -15.5110542055
 H         2.6211207478        4.6675511011      -13.8403813923
 H         1.5182233723        8.7589118890      -12.3615882173
 H         3.0971150593        9.4117980301      -12.9981698076
 H         4.0353063259        9.2720371002      -11.2321501114
 H         3.8835216304        7.5467750054      -11.0598198785
 H        -0.3952514468        8.0768997502       -8.5901778340
 H         0.1095180046        7.8880865346       -6.8989975323
 H        -1.9733688170        6.7609648873       -6.9041679870
 H        -0.8434800384        5.4861934365       -6.8992653325
 H        -0.6575195592        1.7589871823       -8.5383512950
 H         0.0728156815        2.0793112097      -10.1138594212
 H        -0.6347031226        0.0594925703      -10.3525850697
 H        -1.7835280993        1.0004298891      -11.3476038910
 H        -4.1133989294       -3.7473090473       -8.3228830466
 H        -4.3463886755       -2.1218214193       -7.5093657666
 H        -3.3951118795       -3.5073286226       -5.8531620917
 H        -1.9864198072       -2.9508390680       -6.5943010789
 H         0.8071813083       -3.8207313554       -6.8200064046
 H         0.1533814256       -3.9827174773       -8.4486673085
 H         2.6735541101       -4.1025679525       -8.2419229503
 H         1.8624819296       -5.5124383350       -9.1189175447
 H         1.8692594525       -9.3967750462       -7.1885647077
 H         3.5844089568      -10.0054555979       -7.9273480728
 H         1.7710568617      -11.3115814979       -8.8869353593
 H         2.2308332881      -10.0980512339      -10.1150156315
 H        -2.5086962934      -11.3642998253       -8.8566335277
 H        -2.9633606532      -11.7616300678      -10.5029046677
 H        -5.1412433882      -11.3516197992       -9.8831049338
 H        -4.8257560994       -9.6729118133       -9.8494581717
 H        -6.8521977522       -9.0867740629       -8.5201850123
 H        -6.5503545675       -8.8174110696       -6.7897795986
 H        -8.7990075147       -8.1696277026       -6.6344233215
 H        -9.3840617964       -9.7837316889       -7.5398549958
 H       -11.4844777219       -5.6728449914      -10.7058671747
 H       -11.6894853250       -4.7392705224       -9.3190307764
 H       -13.7142399464       -6.0640327393       -8.6302731065
 H       -13.6915889399       -6.8545160445      -10.0510238342
 H       -13.4426980283       -4.9734087258      -13.1663823939
 H       -13.5606944204       -6.5695390295      -13.9004624448
 H       -12.6037813480       -6.3399025018      -12.5331124273
 H       -16.4089521539       -5.0659733566       -9.2945877328
 H       -15.7604762196       -6.7825212280       -9.7635554921
 H       -17.2660725748       -6.2996282387      -10.4193121904
 H       -15.9989089379       -4.2763176384      -13.0359420307
 H       -15.7317445025       -3.0879339843      -11.6694771660
 H       -17.1964408763       -3.9484865881      -11.7576769654
 H       -12.0249197251       -8.1715775432      -11.1766869225
 H       -10.8130363371       -9.3395139871      -10.9168436941
 H       -10.2535089301       -7.7495028500      -11.3949038723
 H       -11.3197657392       -8.8833991063       -7.3077188097
 H       -11.2291823701      -10.0035986181       -8.5729261701
 H       -12.5208020382       -8.9671625623       -8.5610292207
 H        -6.0499346245      -13.0117709881       -8.7054120096
 H        -5.9361312456      -13.6279414510       -7.0861147848
 H        -4.4066986672      -13.1253386287       -7.9111279264
 H        -4.5694893951      -11.8107132662       -5.3078241337
 H        -6.3218757257      -11.1240204995       -5.2109886989
 H        -4.8687999015      -10.2178060273       -5.6798374967
 H         0.8271234596       -9.4369834613      -12.0007772236
 H         0.2756680907       -8.0966773109      -11.0580729104
 H        -0.7662885818       -8.8459890010      -12.2850387734
 H         0.5720966629      -11.8159078622      -11.5057116708
 H        -0.9562635954      -11.6243248802      -11.9148722592
 H        -0.4756264342      -12.3273534096      -10.2823873299
 H         4.5828881552       -6.7035952266       -9.5509431362
 H         5.7802138877       -6.6978009455       -8.2837408282
 H         4.6754921419       -5.3314075354       -8.5105815852
 H         3.8713486215       -8.1528054057       -5.7452639454
 H         5.0684617010       -7.0458336548       -6.0079599292
 H         5.1127908175       -8.4801635756       -6.8425323075
 H        -0.0493167189       -5.1565925717       -4.3739100351
 H        -1.6047315414       -4.4718305219       -4.1523561867
 H        -0.4874290539       -3.7085152176       -5.2061166593
 H        -1.2639321509       -7.8392316066       -6.1985846690
 H        -2.4260498763       -7.0896696665       -5.0248935185
 H        -0.8024883647       -7.2219406396       -4.7073814479
 H        -5.0228881783       -0.2290719707      -10.6671946247
 H        -5.0312788859       -0.6754264875       -9.0084327953
 H        -5.1939499741       -1.9042380585      -10.1105801785
 H        -1.6642957872       -2.0471420685      -11.1677789095
 H        -2.4193253345       -0.8172244008      -12.0902129118
 H        -3.3405401780       -2.2172379110      -11.7912787320
 H        -1.1019273593        3.1836053806       -7.0699131806
 H        -2.7789706655        2.5741558277       -7.2101446793
 H        -2.5988084194        4.1711179388       -6.4817525659
 H        -4.1059147335        3.2120332966       -9.1183882533
 H        -3.8859788476        4.8459694522       -9.9546140667
 H        -4.3057977069        4.6531524819       -8.1795102989
 H         3.9110813147        6.6848230066       -7.6787369790
 H         4.7239492350        7.6350319948       -8.9130969309
 H         3.8725324738        6.1126110083       -9.4530508563
 H         3.7737695656        8.9778579303       -7.5086278075
 H         2.4160708318        8.3067917367       -6.5327447901
 H         2.0861543389        9.6831985295       -7.6262298105
 H         4.3940475538        7.7715700813      -15.6354570079
 H         3.4533552238        6.4274410260      -16.4204133266
 H         4.2858631066        6.2231456156      -14.8630336962
 H         1.1426302893        8.5061641385      -16.1742124842
 H         2.4531284934        9.2721723944      -15.0939631537
 H         0.9636536254        8.7652010373      -14.3596300135
 H        -2.1267243932        2.9296559686      -12.8630137300
 H        -1.9569120944        1.6262950324      -14.0794891900
 H        -3.3987797392        2.3407599087      -13.8379443888
 H        -0.8865113785        4.0208927907      -16.7717214973
 H        -2.5201309241        3.3111631930      -16.7934703452
 H        -1.0893529979        2.3302003603      -16.4069535648
 H        -6.9884434246        6.1860382248      -13.9174594006
 H        -6.8067795818        7.7144283292      -14.8786736802
 H        -7.8590602781        7.5884495492      -13.5337257353
 H        -5.7574432519        9.3567548004      -11.5945526788
 H        -7.2928712482        9.3750062583      -12.4241742092
 H        -5.8677845450        9.9321664613      -13.2331755898
 Na       -2.4391523484        5.7885515675      -12.0344987281
 Na       -2.3865431809       -8.0818477225       -7.8668408422
