232

 C        -7.2474393267        6.4909812374      -11.1655460585
 C        -5.8604744384        6.3963172357      -11.7939812913
 O        -4.9503295574        5.8190382383      -11.2136097436
 C        -5.6697775917        7.3565283109      -13.0928713886
 C        -4.1621190413        7.3578551461      -13.7156320798
 O        -3.1641635753        7.5391169135      -12.9566979348
 C        -3.9810287405        7.1417589757      -15.1855381228
 C        -2.8183397669        6.1069261516      -15.4017784662
 C        -2.8613076105        4.9695370392      -14.4439019882
 O        -3.7888453933        4.8998165844      -13.5994917823
 C        -1.8574074910        3.7520703871      -14.6267399240
 C        -0.4039364094        4.1308575448      -13.9965792214
 O        -0.4021604587        5.0667910611      -13.2090193484
 C         0.9349364525        3.3527200452      -14.5640692695
 C         2.1374888569        4.3491617629      -14.8492767406
 C         1.5528135606        5.7871788073      -15.0712794155
 O         0.3712747292        5.9034830215      -15.4571941994
 C         2.3973857178        7.1135528209      -14.7999274993
 C         2.7900443261        7.2427534769      -13.2622647620
 O         3.0955620442        6.2139352171      -12.6641456385
 C         2.7962049138        8.5257328113      -12.4680634379
 C         3.4952207546        8.3210706113      -11.1254567821
 C         2.5814100377        8.4878792887       -9.8446935001
 O         1.6122918695        9.2737957048       -9.9567590734
 C         2.7655936849        7.6697101915       -8.6065258488
 C         1.3610321059        6.8557121924       -8.5072416252
 O         1.4018813547        5.6436453653       -8.7955037392
 C        -0.0237231457        7.5386452493       -8.2002186290
 C        -0.9595733826        6.3667127986       -7.5864437518
 C        -1.8385246273        5.7582527730       -8.6974658727
 O        -2.0944489069        6.4217819715       -9.6861325049
 C        -2.2383179977        4.2800117462       -8.5499992065
 C        -1.7176118726        3.3781191774       -9.7787021020
 O        -1.9260902203        3.5512584037      -10.9878961521
 C        -1.0468158029        2.0741402885       -9.3849243819
 C        -1.4362920817        0.8668409033      -10.2175161358
 C        -2.6244720254        0.1555266257       -9.4557429088
 O        -3.0737531962        0.6119032921       -8.4124775936
 C        -3.1913271172       -1.2175914782      -10.0106050352
 C        -2.6770908284       -2.3368810172       -8.9817821814
 O        -1.6059637710       -2.8960064811       -9.1080746175
 C        -3.7226226564       -2.9017943122       -7.9436064650
 C        -2.9423536525       -3.6092573833       -6.7559553770
 C        -2.4905745846       -4.9913512275       -6.9712445808
 O        -3.0640996744       -5.6790414524       -7.7779750673
 C        -1.2550527470       -5.5993569534       -6.1719665673
 C        -0.1272899666       -5.6191308786       -7.2335348206
 O        -0.2163555169       -6.4971442215       -8.0898359800
 C         0.7397757055       -4.4543636066       -7.3956750303
 C         2.0905890736       -4.8887555633       -7.8959549367
 C         2.6651030824       -6.0240595327       -7.0260281140
 O         2.1471039890       -6.3078617442       -5.9732320270
 C         3.7322963391       -6.9494254422       -7.5733475246
 C         2.8499285755       -7.8818801610       -8.5579512785
 O         2.4715113360       -7.4534975770       -9.6370901258
 C         2.6580810686       -9.4027440629       -8.0575374025
 C         1.8766030658      -10.2126976672       -9.1793788532
 C         0.3228390326       -9.9003676352       -9.1419528902
 O        -0.3158853425       -9.6928723536       -8.1286370968
 C        -0.4742459595       -9.9954566314      -10.5256173619
 C        -1.9372984951       -9.7633454254      -10.2318790947
 O        -2.3461106661       -8.6380464440      -10.3677087223
 C        -3.0105341141      -10.8424206387       -9.8697772747
 C        -4.3607927522      -10.2586952935       -9.5514148951
 C        -4.5851009437      -10.1018078727       -7.9862975737
 O        -4.0589745909       -9.1443458074       -7.3833796433
 C        -5.5051267136      -11.1867513486       -7.2948874502
 C        -7.1089861751      -10.7300179317       -7.4102076979
 O        -7.9478890826      -11.5774213387       -7.6162931860
 C        -7.4471538135       -9.2224709244       -7.1537457585
 C        -8.9410220716       -8.8548208470       -7.3199810761
 C        -9.3669374762       -8.4449154660       -8.8168570804
 O        -8.6829496124       -8.1826392936       -9.7602671246
 C       -11.0043257891       -8.2359859628       -9.0774421551
 C       -11.2278563047       -6.7932423345       -8.3723005110
 O       -10.8982158065       -6.6752236898       -7.1859590447
 C       -11.8310313878       -5.6325617042       -9.2858503685
 C       -13.3030396600       -5.9209181925       -9.3747603864
 C       -14.0966798534       -4.9455733735      -10.3116373951
 O       -13.8131672120       -3.7703749428      -10.3506643147
 C       -15.4064932975       -5.3354962914      -11.1219954297
 C       -14.8989327919       -6.3901053405      -12.2650937311
 O       -15.1816732338       -7.5629847063      -12.1022642034
 C       -13.9111972751       -5.9401795724      -13.2995086077
 C       -16.4005415455       -6.0966679128      -10.2138658535
 C       -15.9717940900       -4.1719033053      -11.8576229992
 C       -11.1972471151       -8.2977373700      -10.6617105438
 C       -11.9172447039       -9.2762245139       -8.4130090936
 C        -5.3264122129      -12.5566938761       -7.9381086432
 C        -5.3515024663      -11.0154000948       -5.6992412186
 C         0.0482979645       -9.0281908810      -11.6515375304
 C        -0.2786639406      -11.4151789737      -11.0648472520
 C         4.7642797663       -6.2434327999       -8.4620164440
 C         4.4249078088       -7.6629379494       -6.5318237690
 C        -0.6648252126       -4.6618413257       -4.9696501169
 C        -1.6524281167       -7.0385786673       -5.7340009212
 C        -4.7167996591       -0.9394099461       -9.9594520036
 C        -2.6806352216       -1.5960056550      -11.3823431495
 C        -2.0441943111        3.7532077460       -7.1376835671
 C        -3.7164876821        4.2267943647       -8.8718574325
 C         3.8981968366        6.6104377134       -8.6142967501
 C         3.0162312197        8.4886215973       -7.2411810273
 C         3.7624456970        6.9980761464      -15.5487917350
 C         1.4494944134        8.2487816189      -15.2490828400
 C        -2.5052976289        2.5477591771      -13.8569802975
 C        -1.7303437625        3.5467272859      -16.1250484320
 C        -6.6198145308        7.1272780690      -14.1660367427
 C        -5.7668302466        8.7834711198      -12.5174846798
 H        -7.8458009188        7.1611613637      -11.7089507470
 H        -7.0305539528        7.1077913241      -10.3236344883
 H        -7.6222882876        5.5068289641      -10.9018034574
 H        -3.6928485346        8.1473007913      -15.6416183858
 H        -4.8714402097        6.7657534186      -15.6834362463
 H        -1.8498659076        6.5624955179      -15.3869163879
 H        -2.9575010877        5.7833368478      -16.4722055107
 H         0.5916916383        2.8300405970      -15.4398789014
 H         1.2423572696        2.7171979351      -13.7082143382
 H         2.7008086248        4.0055287520      -15.7626694510
 H         2.8355281027        4.3732406292      -14.0513858627
 H         1.8091017426        8.7880776292      -12.1164149610
 H         3.2458106844        9.2506977810      -13.1551718836
 H         4.3517711531        9.0757417183      -10.8900060632
 H         4.0130534184        7.3366301229      -11.1522009118
 H        -0.4377030206        7.9485867421       -9.1251214097
 H         0.0937559936        8.4069679870       -7.4682866940
 H        -1.5713552881        6.5816004191       -6.6783520048
 H        -0.3404130481        5.4532333392       -7.3347758879
 H        -1.0971497805        1.7980570934       -8.2979972232
 H        -0.0053292467        2.3448239910       -9.6228833439
 H        -0.6139340726        0.2088698842      -10.2589891952
 H        -1.7124054769        1.1397233564      -11.3060189673
 H        -4.3385292869       -3.5515552759       -8.4754228756
 H        -4.4025513472       -2.0435451787       -7.4689029025
 H        -3.6039397699       -3.5368613479       -5.8820102605
 H        -2.1592141228       -2.8098521113       -6.3893728639
 H         0.8486776210       -3.7363827297       -6.5743485920
 H         0.3723631353       -3.7289081247       -8.1795162538
 H         2.7102666884       -3.9961931550       -7.8979348302
 H         2.0404415014       -5.2766628965       -8.9002978657
 H         2.1803438668       -9.3487122143       -7.0732751150
 H         3.7301086139       -9.8233182684       -8.0525509214
 H         2.0827844001      -11.2352641670       -8.9230863851
 H         2.3591798213       -9.9817815045      -10.2370122435
 H        -2.6608987782      -11.4277690449       -9.0557447796
 H        -3.1625773241      -11.4263926560      -10.8349502988
 H        -5.2397654760      -10.8076194752       -9.8095541991
 H        -4.4342576740       -9.2208411049      -10.0277196681
 H        -6.8435814471       -8.7032171005       -7.9382543445
 H        -6.9421503396       -9.0255836568       -6.1898119241
 H        -9.2798485095       -8.0773008601       -6.6768316126
 H        -9.5720593154       -9.7026035817       -7.2082757083
 H       -11.5401743775       -5.5850839054      -10.3736526041
 H       -11.7125802381       -4.6406395915       -8.8297122420
 H       -13.7926175769       -5.8037366300       -8.3730198649
 H       -13.5497627132       -6.9744629609       -9.6558614920
 H       -13.9374711240       -4.8753943692      -13.4857227643
 H       -14.0499147818       -6.5712494945      -14.2163358153
 H       -12.8365496097       -6.0977897468      -13.0650366769
 H       -16.8078581987       -5.3550754261       -9.5112224832
 H       -15.9835035094       -6.9464102230       -9.7066272331
 H       -17.0926836555       -6.4799527443      -10.8602014639
 H       -16.0791065787       -4.5189066457      -12.8845232372
 H       -15.3936652747       -3.2784980836      -11.8881625199
 H       -16.9254285623       -3.8197856007      -11.5138265045
 H       -12.2272874116       -8.2612184838      -10.8865870888
 H       -10.8126048138       -9.1639546223      -11.1557551598
 H       -10.8228533093       -7.4185643637      -11.1499789489
 H       -12.0292943963       -9.0376564823       -7.3315651725
 H       -11.4652388965      -10.2643875628       -8.3880244402
 H       -12.9807649999       -9.4283166918       -8.7833209748
 H        -5.1446320009      -12.5665997517       -9.0024006846
 H        -6.2636517400      -13.0559622295       -7.9021191526
 H        -4.6308436842      -13.1378113421       -7.3654067107
 H        -4.5375047679      -10.3080113337       -5.5734894386
 H        -5.2791302663      -11.9720698422       -5.1788630204
 H        -6.2334890995      -10.5691906444       -5.2606252430
 H         1.0895752893       -9.2570102646      -11.8348438494
 H        -0.0078915491       -7.9371850958      -11.3910652169
 H        -0.5516857753       -9.1804273291      -12.5972326335
 H         0.7970463236      -11.7568378684      -11.1919082959
 H        -0.7785594385      -11.6653321484      -11.9838622307
 H        -0.6738822062      -12.1151252595      -10.3687790587
 H         4.2067655050       -5.8398269233       -9.3304583449
 H         5.4377358809       -6.9428886071       -9.0226438095
 H         5.2365130714       -5.4257561808       -7.9364032456
 H         3.7923709964       -8.2105991837       -5.8344291147
 H         5.0041974003       -7.0747894250       -5.8862530199
 H         5.1281863844       -8.3912382157       -6.8029662389
 H         0.2723381534       -4.9005874609       -4.5161876055
 H        -1.2360243549       -4.3672656630       -4.0597596158
 H        -0.6603954760       -3.7106091580       -5.4885918903
 H        -0.7963145887       -7.6606566161       -6.0890755714
 H        -2.5690360793       -7.2860900065       -6.2307113202
 H        -1.9340396510       -6.9811026467       -4.6935888546
 H        -4.9248271850        0.0729714848      -10.3421029211
 H        -5.1320248110       -0.7753004238       -9.0116097350
 H        -5.3603578618       -1.7548818200      -10.4595005596
 H        -1.6908366199       -1.3706105133      -11.5499598597
 H        -3.1401622335       -1.0482207473      -12.2093614452
 H        -2.9232218031       -2.5924241690      -11.6473529815
 H        -0.9832577008        3.8943238227       -6.8337509938
 H        -2.3108442807        2.6914612979       -7.1733826359
 H        -2.6499371161        4.3847701359       -6.5571917310
 H        -4.0876367892        3.2514584386       -8.6245492573
 H        -4.0814790180        4.5704240859       -9.8615805986
 H        -4.1504942512        4.9385515254       -8.1831613543
 H         3.8036239449        6.0881658200       -7.7385369250
 H         4.8132718008        7.2225069976       -8.5988173273
 H         3.8785207944        6.0585949331       -9.5523601981
 H         3.8949292031        9.1830979976       -7.3813649922
 H         3.4708214092        7.7498492479       -6.5531624517
 H         2.3096719849        9.1331023596       -6.6909830281
 H         4.4795778045        7.6824915981      -15.0168775816
 H         3.6454362988        7.3429049546      -16.5293507844
 H         4.2667386481        6.0425897099      -15.4997081423
 H         1.1587682383        7.9268497411      -16.2287146059
 H         2.0244413929        9.1324389945      -15.2834718970
 H         0.5519041175        8.3741452210      -14.6952022432
 H        -2.9790176439        2.7729247268      -12.8938511204
 H        -1.7686218086        1.7663054472      -13.7308510369
 H        -3.2653132197        1.8783706526      -14.3555464865
 H        -1.3928302374        4.4941012259      -16.6180428528
 H        -2.7789105707        3.2789719558      -16.4178380933
 H        -0.9957459663        2.8353338825      -16.3170988175
 H        -6.5840276375        6.1557948086      -14.6538144280
 H        -6.5650839302        7.9830878906      -14.8602912142
 H        -7.6517322094        7.1516254450      -13.7737442748
 H        -4.8421476472        9.1433363377      -12.0610791932
 H        -6.5513393608        8.8319579480      -11.7421692078
 H        -6.0130099327        9.5195226847      -13.2344082263
 Na       -2.5158032329        5.8462713241      -11.7520743939
 Na       -2.1009414251       -7.8194572355       -8.3391516801
