232

 C       -21.6048066068       -7.1650025008       -2.0651315663
 C       -20.7046322659       -6.2041180843       -2.8510371560
 O       -19.6067007667       -5.8835133032       -2.3786314818
 C       -21.1266072537       -5.8806901633       -4.3720665174
 C       -19.9653767221       -4.9777410968       -4.9814823316
 O       -19.8201979803       -3.8783602180       -4.5002301522
 C       -19.2484876928       -5.3773851768       -6.2401805929
 C       -17.7739076180       -4.9161727026       -6.3691659966
 C       -17.2075739033       -4.1886091924       -5.1187702788
 O       -17.1873409735       -4.8997965086       -4.1493067202
 C       -16.7012279869       -2.7163314302       -5.1978775047
 C       -16.5953590331       -2.1420269940       -3.7231334413
 O       -17.4068060008       -1.3412686832       -3.2812644246
 C       -15.3299816591       -2.5924104816       -2.9709354104
 C       -15.3945489427       -2.2233622256       -1.4997323265
 C       -16.1862836605       -3.1762541330       -0.5291995960
 O       -17.3027313643       -3.6185432989       -0.7516052491
 C       -15.3919049379       -3.7377204566        0.7176512823
 C       -14.1183895104       -4.4656732438        0.1820915789
 O       -13.0237271296       -4.0778557925        0.3605049185
 C       -14.3443962504       -5.6894095435       -0.7731713795
 C       -12.9985512570       -6.1892028162       -1.2311514068
 C       -12.7789446359       -6.1755471973       -2.7287147266
 O       -13.3322125334       -5.3056809242       -3.4205487136
 C       -11.7415166188       -7.2033153854       -3.3389925210
 C       -10.4642445131       -6.4957907720       -4.0288659759
 O       -10.2473732539       -5.3139860090       -3.8598891597
 C        -9.4955467112       -7.3897422303       -4.8316739506
 C        -8.0744924284       -7.2610143367       -4.2222020567
 C        -7.3863006744       -5.9980199277       -4.6212810357
 O        -7.6259854786       -5.4351616046       -5.6632326038
 C        -6.4618990938       -5.2412943015       -3.4675607476
 C        -4.9219959770       -5.6426922666       -3.4563679562
 O        -4.3342737992       -5.6262590496       -2.3716829450
 C        -4.1365119965       -5.9657447474       -4.6753645553
 C        -2.5971817261       -5.8709749101       -4.4959454173
 C        -2.0575798914       -4.4690215669       -4.8098874613
 O        -2.8693168801       -3.5479090120       -4.8986505775
 C        -0.4876559646       -4.4537461940       -5.1897860276
 C        -0.3675679304       -4.6864825783       -6.7512417904
 O        -0.4717651143       -5.8284286539       -7.1419046766
 C         0.0839403077       -3.5361142557       -7.6863271456
 C         0.0709261853       -4.0010654526       -9.1839010589
 C         1.3608791408       -4.4762036430       -9.7561332340
 O         2.4056191576       -4.0745624536       -9.2705155206
 C         1.5468061838       -5.0515446001      -11.3020419370
 C         1.6294367255       -3.6325137268      -12.1651020856
 O         0.6393139541       -3.0098677968      -12.5624756385
 C         3.0095747722       -3.0865942281      -12.5372846339
 C         3.1151805956       -1.6206977498      -13.0054873441
 C         4.5915206785       -1.0746272626      -13.1196773642
 O         5.1875682319       -0.7750628845      -12.1217474700
 C         5.1544718460       -0.9702303504      -14.5574594816
 C         4.7971349176        0.2963570285      -15.4420406337
 O         4.9490318847        0.3385765035      -16.6424350060
 C         4.2198064455        1.5631401787      -14.6616853053
 C         5.2431283118        2.3578536745      -13.8481053406
 C         6.6025171227        2.8179431758      -14.5635408251
 O         6.9427283576        2.5520257881      -15.7325629342
 C         7.4717745985        3.8837922809      -13.7625648307
 C         6.7169940121        5.1519386160      -14.2702498007
 O         5.6875491682        5.3606319096      -13.6736482738
 C         7.3331620108        6.1524081878      -15.1747670704
 C         6.3200786806        6.9307191046      -16.0873698058
 C         5.8475953266        5.9373045497      -17.1373376653
 O         5.8515551466        4.7777983948      -16.9416667831
 C         5.0237970637        6.4645830045      -18.3755669531
 C         6.2476256758        6.9262893034      -19.3122774488
 O         6.8654756965        7.8943985212      -18.8752126535
 C         6.3864127352        6.2712419839      -20.8282373485
 C         7.8457026458        6.1134569993      -21.2241248188
 C         8.0947229948        5.2316775355      -22.3853037655
 O         7.2038116874        4.7631165790      -23.0909573426
 C         9.5174704363        4.8572033182      -22.7953266899
 C         9.4838782843        3.2230823423      -22.4238755990
 O         9.4590469238        2.3728512914      -23.2800692844
 C         9.5463879444        2.7819608016      -20.8644982265
 C         8.9646723617        1.2823354372      -20.7015616295
 C         8.1522889414        1.0523137483      -19.3671322630
 O         7.9968009018        1.9195527053      -18.5439732467
 C         7.4171872655       -0.3932765325      -19.2233347469
 C         5.9617792503       -0.0590922268      -19.6734431508
 O         5.5239026262        1.0538717079      -19.4689008339
 C         5.1623671091       -1.0606855191      -20.5485875489
 C         8.1692989723       -1.3902138299      -20.1016181855
 C         7.4660844366       -0.7698034025      -17.6948051846
 C         9.8562091758        5.1584298100      -24.1899462156
 C        10.6059782176        5.5506007771      -22.0078532351
 C         4.0516816407        5.4992771832      -18.9458578865
 C         4.2835245263        7.7706395158      -18.0087360154
 C         7.4171228434        3.8034165077      -12.3077447123
 C         9.0750641371        3.6242009209      -14.1366360710
 C         6.7374591539       -0.7762781479      -14.4377512736
 C         4.8442240120       -2.2008279509      -15.3184744081
 C         2.7948481127       -5.8856298962      -11.2930435690
 C         0.2059055603       -5.7804068343      -11.6496147297
 C         0.0406626820       -3.0509157513       -4.7246535483
 C         0.3602231115       -5.5709086417       -4.5020133884
 C        -6.6509077841       -3.7633304606       -3.7835187589
 C        -7.0326695244       -5.4359922373       -2.0382331369
 C       -11.3434382454       -8.3523983299       -2.3411981183
 C       -12.5301657480       -7.8421209742       -4.5370256061
 C       -15.0035658548       -2.5067855479        1.6926950498
 C       -16.2678365547       -4.8002223747        1.4605255572
 C       -15.3688963721       -2.6818380442       -5.9673716492
 C       -17.7414400707       -1.8051897357       -5.8851541405
 C       -21.1205775962       -7.2933127282       -5.1184966008
 C       -22.5364498186       -5.2232087756       -4.5695545410
 H       -22.5913765210       -7.0505626908       -2.3753835675
 H       -21.5039985088       -6.8375793591       -1.0212915015
 H       -21.2163384547       -8.0900614467       -2.2908436205
 H       -19.8646751317       -4.9203123390       -7.0444193353
 H       -19.2102910520       -6.4850294427       -6.3156464959
 H       -17.7208618690       -4.3155108037       -7.3218997345
 H       -17.1950951322       -5.8335453036       -6.5417747288
 H       -14.4899352004       -2.1361682867       -3.4981222520
 H       -15.1577639657       -3.6278300412       -3.2651182419
 H       -15.7337442435       -1.1985995363       -1.2896276442
 H       -14.3704639440       -2.4017253646       -1.1069657346
 H       -14.8706313320       -5.2445681162       -1.6502597231
 H       -14.9999237071       -6.4903622187       -0.3851145338
 H       -12.7673718632       -7.1055158236       -0.7955543035
 H       -12.2761212082       -5.3710022883       -0.9000475761
 H        -9.5126144843       -7.0378312647       -5.8938207228
 H        -9.8042292299       -8.4545416477       -4.7057301664
 H        -7.4411659533       -8.0333894818       -4.7593343747
 H        -8.1637122222       -7.5277800940       -3.1920501111
 H        -4.5443833995       -5.4070272014       -5.5607781047
 H        -4.4050567642       -7.0313747725       -5.0114691231
 H        -2.1945093585       -6.6143937656       -5.1038409076
 H        -2.3663695144       -6.0083943384       -3.4563595859
 H         1.0415576075       -3.2392175786       -7.2201587878
 H        -0.7094408877       -2.7969060808       -7.5051566952
 H        -0.2819949282       -3.3751359510      -10.0112972718
 H        -0.5608660391       -4.9721793195       -9.2161585510
 H         3.3443620820       -3.7603165261      -13.3368750163
 H         3.5835249421       -3.1989079936      -11.6082587433
 H         2.7887948152       -0.9010949124      -12.2418364784
 H         2.6144492024       -1.3757176203      -13.9110940838
 H         3.3971965853        1.2270731950      -13.9387452689
 H         3.7546162184        2.1986520053      -15.4075476728
 H         5.5810236013        1.7585158995      -13.0222056526
 H         4.9010574626        3.2835832999      -13.4430895388
 H         8.1096331242        5.7545184410      -15.7636472554
 H         7.8252763057        6.8998024492      -14.5556178689
 H         6.7809637876        7.7893161770      -16.5152929371
 H         5.5197973251        7.2788423528      -15.4636383552
 H         6.0906587714        7.0408374868      -21.5536498825
 H         5.6285349457        5.4837234194      -20.9880599291
 H         8.2804073924        5.6873739417      -20.3639245810
 H         8.2089159965        7.1745801023      -21.2833477817
 H         8.9249867720        3.3815436076      -20.1504519608
 H        10.5971415611        2.6540179385      -20.5760083050
 H         9.7750890956        0.5577874632      -20.7809814447
 H         8.1895094608        0.8324325704      -21.4344372184
 H         5.3521836557       -2.0537186934      -20.1810510946
 H         5.3595988949       -1.0524395158      -21.5877007571
 H         4.1138386798       -0.7480312228      -20.5281116438
 H         7.6402649070       -2.3644025484      -20.1221618255
 H         9.1280732665       -1.5385903984      -19.8410702104
 H         8.1412600980       -1.1094042463      -21.1600073573
 H         6.6417560896       -1.2600159376      -17.2702210166
 H         7.4741239881        0.1195987251      -17.1629831193
 H         8.3942185742       -1.2347885898      -17.4494290634
 H         9.9391243024        4.1797936005      -24.6359611423
 H        10.8469386455        5.5939468161      -24.4121794095
 H         8.9539616262        5.7895514814      -24.6050573738
 H        11.5422610902        5.2143615811      -22.3781986509
 H        10.5763900220        5.4505291893      -20.9130031911
 H        10.4440722095        6.5835732977      -22.1660711700
 H         3.1167777505        5.4821249345      -18.3926642555
 H         4.5392650610        4.4367611562      -19.0069272004
 H         3.7199212703        5.7320387497      -19.9621615233
 H         4.9500501604        8.5755463833      -17.7171050069
 H         3.5921785240        7.4430677965      -17.2302961783
 H         3.6049748763        8.0648213751      -18.8589438116
 H         8.2389561191        4.4870451067      -11.9801854165
 H         7.5574558437        2.7733038595      -11.9603845343
 H         6.4276510949        4.1473883385      -12.0936958040
 H         9.4713900567        3.0848987086      -13.2767237762
 H         9.6110817183        4.5637013840      -14.0134449624
 H         9.1390435193        3.0714291356      -15.0522469732
 H         7.1722847035       -1.6862653832      -13.9986639848
 H         7.0046587280        0.0369072815      -13.8344756553
 H         7.2006306270       -0.7671467246      -15.4153099883
 H         5.0459291821       -3.0582301813      -14.7440624708
 H         5.6179359245       -2.3165679556      -16.1082126732
 H         3.8757663164       -2.3718604075      -15.6783538852
 H         2.7136090709       -6.7153292945      -10.6550325521
 H         3.5936155092       -5.2205346588      -10.8591040849
 H         3.0929989946       -6.3380236199      -12.2310254160
 H        -0.6235724716       -5.0914129726      -11.5468133901
 H         0.1473725516       -6.7847396530      -11.1570512573
 H         0.1844684033       -6.0333379661      -12.7209500838
 H        -0.3830029071       -2.8836236864       -3.7801643800
 H        -0.2218622154       -2.2365316437       -5.3820311320
 H         1.1355075154       -3.0461217759       -4.5543355599
 H        -0.2584150935       -6.4198042948       -4.3795804168
 H         0.8210085439       -5.2753479101       -3.5623952682
 H         1.1739350262       -5.8788529996       -5.1203434926
 H        -6.6132267590       -3.6783437766       -4.8489342960
 H        -5.9026336251       -3.1999479680       -3.3410184175
 H        -7.5592341300       -3.3040975437       -3.4468632409
 H        -8.0182238565       -5.0316610368       -1.9942763996
 H        -6.5252876183       -4.9191320900       -1.2802385365
 H        -7.1016594011       -6.5156710361       -1.7754856821
 H       -12.2250943714       -8.9028533474       -1.9272045541
 H       -10.6103573083       -7.9585399561       -1.6383596421
 H       -10.8691850477       -9.1441844559       -2.8597686145
 H       -13.0828910280       -8.6194368074       -4.1620224039
 H       -11.9382430111       -8.3222436268       -5.3370594518
 H       -13.1136345030       -6.9869333003       -4.9660663237
 H       -14.6536551470       -2.8456946514        2.6827707099
 H       -15.8558652589       -1.8837440482        1.8982944446
 H       -14.3051155568       -1.9131198033        1.1827346251
 H       -15.5983060673       -5.5763842236        1.6245155138
 H       -17.1375926844       -4.9943557993        0.9514470522
 H       -16.5187939509       -4.5003129166        2.4197371359
 H       -15.4332269840       -3.1691720714       -6.9239294426
 H       -14.5870973733       -3.1477766321       -5.4323111864
 H       -15.1133229653       -1.6088495303       -6.0707443426
 H       -18.5735239908       -1.8486675100       -5.2839825989
 H       -17.8679871464       -2.2818024275       -6.9376539454
 H       -17.2396332037       -0.7907996736       -6.0852211248
 H       -20.3142435856       -7.9877479224       -4.8350961238
 H       -21.1399180972       -7.3122270955       -6.1626713370
 H       -22.0356402096       -7.9116321674       -4.8201685967
 H       -22.7860355800       -4.7532315220       -3.5644548659
 H       -23.2817270047       -5.8425597446       -4.9615614718
 H       -22.4402456645       -4.5613031118       -5.4399775578
 Na      -18.4706010127       -3.8643335194       -2.5948199421
 Na        5.7362184466        2.4048475680      -17.7600283605
