232

 C        -7.2699181693        6.1439895453      -11.4577300524
 C        -5.8049052326        6.4691359308      -11.9087035338
 O        -4.8730913541        6.0986589684      -11.2219795052
 C        -5.4919332717        7.4443792942      -13.0772929127
 C        -4.0736629815        7.2916670644      -13.7468874453
 O        -3.0850375318        7.4637175293      -13.1184252651
 C        -3.9529437526        7.0861357615      -15.2992282518
 C        -2.8796989632        6.0147205453      -15.6114050411
 C        -2.9165585146        4.7907340145      -14.6119257968
 O        -3.6523826399        4.7940161907      -13.6600195236
 C        -1.7827927096        3.6720326404      -14.7590838709
 C        -0.5385113305        4.2175530522      -13.8489614412
 O        -0.5883873974        4.8509657428      -12.8081098075
 C         0.7242134010        3.5126415435      -14.4434295615
 C         1.8858824834        4.4715762057      -14.5030705181
 C         1.4807953639        5.8093807643      -15.1075577055
 O         0.5304695288        5.9882623929      -15.8050180694
 C         2.3419299056        7.1015885577      -14.7312408578
 C         2.8510531470        6.9940403847      -13.2384057364
 O         3.2723613804        6.0017465496      -12.7431499391
 C         2.9143373439        8.3161160854      -12.5005768298
 C         3.5842146319        8.1631975720      -11.1435873075
 C         2.6009999970        8.4382964790       -9.9951200946
 O         1.5945964209        9.1121037991       -9.9726800915
 C         2.9145608422        7.5768914040       -8.6769746310
 C         1.5128294339        6.6945489379       -8.5163242612
 O         1.5091062596        5.5390777797       -8.7986281422
 C         0.2395891606        7.4817875883       -8.1095536409
 C        -0.8443449701        6.5595336051       -7.6449433495
 C        -1.7874723947        5.8546449018       -8.7114439801
 O        -2.1594994326        6.5100665974       -9.6640699776
 C        -2.3004569039        4.3197879851       -8.5114957740
 C        -1.8560548348        3.2533232969       -9.5377170053
 O        -2.1581440030        3.4052199041      -10.7016278061
 C        -0.9430581883        2.0839705652       -9.2711937690
 C        -1.4237540426        0.7671252061       -9.9653984158
 C        -2.6988272431        0.1375753430       -9.4075879347
 O        -3.3378895119        0.6852559779       -8.5499759663
 C        -3.2943418106       -1.2369995556      -10.0221119133
 C        -2.7837380475       -2.3624732700       -9.0212456400
 O        -1.6970757464       -2.8494879028       -9.2182583078
 C        -3.7247889647       -2.7575447413       -7.8828425384
 C        -3.0721492500       -3.5211105379       -6.7200858676
 C        -2.5134928591       -4.9192973788       -7.0544744891
 O        -2.9590153456       -5.4725453653       -8.0599849042
 C        -1.3262172112       -5.4138846534       -6.1764567372
 C        -0.1911372354       -5.4438185508       -7.2994647117
 O        -0.1868703047       -6.3116254742       -8.1413111508
 C         0.9191669762       -4.3243871962       -7.4136124023
 C         2.2571226809       -4.9085453473       -7.8811710343
 C         2.7272138952       -6.0940100661       -6.9988200870
 O         2.0884771061       -6.2803662434       -5.9740512114
 C         3.7739009457       -6.9324466618       -7.6251949544
 C         2.9238485058       -7.8768167517       -8.6407135927
 O         2.4516339583       -7.3218728608       -9.5849304903
 C         2.6347545064       -9.3364930029       -8.1582488583
 C         1.8004562759      -10.2100258169       -9.1227447869
 C         0.2185533970       -9.9092567894       -9.1874684489
 O        -0.3429499999       -9.4889672137       -8.2190071095
 C        -0.5257379663      -10.0872981840      -10.6361015478
 C        -1.9999926070       -9.6911437931      -10.5304325993
 O        -2.2827438824       -8.5146198960      -10.7212165684
 C        -3.0367843528      -10.6853300131      -10.0055071173
 C        -4.3904947484       -9.9245824663       -9.6120588236
 C        -4.4722821744       -9.8996835997       -8.0034874070
 O        -3.7919266073       -9.1043140625       -7.3952739430
 C        -5.4569373806      -10.8519071294       -7.3336964642
 C        -7.1289163403      -10.4655801831       -7.3551742667
 O        -7.8525297748      -11.3886051850       -7.3824867144
 C        -7.7064613591       -8.9918600374       -7.2187029284
 C        -9.2052402363       -9.1169653955       -7.2617873563
 C        -9.5671732173       -8.6453109749       -8.7802845493
 O        -8.6337693815       -8.4680989812       -9.5997059347
 C       -11.0609837311       -8.3788164160       -9.0017839958
 C       -11.3393125864       -6.9179548594       -8.2643657108
 O       -11.0034273557       -6.7315150033       -7.1303907462
 C       -12.0766253812       -5.7621511144       -8.9118810931
 C       -13.6510215946       -5.9589361639       -9.1441596385
 C       -14.1391874518       -4.9150068112      -10.1582527229
 O       -13.5897033077       -3.8291280214      -10.2904500026
 C       -15.2921689566       -5.3620141210      -11.0569596837
 C       -14.8299802602       -6.4705247175      -12.2562759182
 O       -14.9802518212       -7.6807844805      -12.1903964255
 C       -14.2622922018       -5.8688758504      -13.5119585555
 C       -16.3453837924       -6.1304783576      -10.1661995917
 C       -16.0138732739       -4.2194371519      -11.8525260762
 C       -11.2950631205       -8.1950782127      -10.5718421356
 C       -12.0157488439       -9.4182077769       -8.2516635744
 C        -5.3811476178      -12.3021946199       -7.8080916956
 C        -5.1999479466      -10.8438107574       -5.7698307409
 C         0.2598558990       -9.0382903922      -11.4710405871
 C        -0.1588856768      -11.5320771563      -11.0772004778
 C         4.8436324889       -6.1550111392       -8.3643873031
 C         4.4568641381       -7.8594851046       -6.5945520118
 C        -1.1369774306       -4.5381489986       -4.8629638945
 C        -1.4594125867       -6.8594681514       -5.5255477108
 C        -4.8622420195       -1.2303935890      -10.1428863516
 C        -2.6700099787       -1.5149112234      -11.4022220334
 C        -1.8487115939        3.8235046603       -7.1773179157
 C        -3.8724497870        4.3548413438       -8.5437480591
 C         4.0434690248        6.4758657297       -8.8091817651
 C         3.0836167064        8.4385938240       -7.4309279298
 C         3.7069410969        7.0364718125      -15.5051951825
 C         1.6636906266        8.4219281052      -15.1386087994
 C        -2.0615167878        2.4564165421      -13.9209758955
 C        -1.6605800598        3.3373960281      -16.2692386692
 C        -6.6291795342        7.1411886582      -14.1331325233
 C        -5.6133665211        8.8422366491      -12.5509902968
 H        -7.8976578534        7.0256755069      -11.6628961559
 H        -7.2357829330        5.9123465755      -10.3786387907
 H        -7.4742231220        5.3125122294      -12.1005464993
 H        -3.6773081509        7.9769841467      -15.7914559933
 H        -4.8689984771        6.6861659661      -15.7352923146
 H        -1.8220376017        6.4711079110      -15.6181334885
 H        -2.9911166454        5.8303267581      -16.6782831894
 H         0.4515420355        3.2607728536      -15.4988872352
 H         0.9568119228        2.6287419012      -13.8537907019
 H         2.6703474751        4.0225327599      -15.0747058833
 H         2.3395367089        4.6413752432      -13.4870997362
 H         1.8791648736        8.7255249094      -12.4576381156
 H         3.6079860367        8.9088738475      -13.1138190200
 H         4.3796738622        8.8184482763      -10.9509867023
 H         4.0669544583        7.1953094249      -11.1528443288
 H        -0.0405720406        8.1493440686       -8.9377260657
 H         0.4382609632        8.1238615695       -7.2808017387
 H        -1.6056775473        7.0106537971       -7.0475783152
 H        -0.3977854483        5.7833655709       -7.0714096156
 H        -0.7846393114        1.8848062924       -8.2344114333
 H         0.0187633028        2.4387307356       -9.6568122887
 H        -0.5602052753       -0.0139827937       -9.9683952190
 H        -1.6273101160        0.9611613668      -11.0049867065
 H        -4.5540843263       -3.4382734767       -8.3006402547
 H        -4.1925722550       -1.9070436987       -7.5535935523
 H        -3.7428826670       -3.3941499620       -5.8918077408
 H        -2.3184832860       -2.9167695978       -6.3543665003
 H         1.1007324389       -3.7832193648       -6.4931021249
 H         0.4643478837       -3.5123603800       -7.9519500986
 H         3.1076715683       -4.2272853474       -7.7986643254
 H         2.2707570022       -5.2826930916       -8.9334978336
 H         1.9616677516       -9.1386981863       -7.2433130861
 H         3.5596829460       -9.7829282015       -7.8878930271
 H         2.0639418321      -11.2448424720       -8.7880228008
 H         2.0743648461      -10.0940356014      -10.0845707052
 H        -2.5685976854      -11.1303234538       -9.1204466783
 H        -3.2557882729      -11.4005665614      -10.7390667155
 H        -5.3307696354      -10.4033082930       -9.9286207054
 H        -4.3646344718       -8.9609290231      -10.0040545420
 H        -7.2774868924       -8.5317472033       -8.1042138654
 H        -7.2609585431       -8.4751435964       -6.3802344573
 H        -9.7744077710       -8.4510735287       -6.5142966292
 H        -9.5222407834      -10.2293934427       -7.1363593428
 H       -11.5780590085       -5.6439819923       -9.8659037729
 H       -11.8713093629       -4.9145067136       -8.2336070849
 H       -14.0965625405       -5.8251483068       -8.1688089130
 H       -13.8315012960       -6.9835281302       -9.4579288115
 H       -14.3195039259       -4.8086314542      -13.7107900050
 H       -14.4093736263       -6.5181549660      -14.3244761715
 H       -13.1946119293       -5.9306516431      -13.3019238355
 H       -16.8785403269       -5.4105159265       -9.5625578939
 H       -15.8378870998       -6.8524825137       -9.4870131827
 H       -17.0409510203       -6.6857812299      -10.9390465319
 H       -16.8515434465       -4.5750317411      -12.5253055184
 H       -15.3704795395       -3.6041211365      -12.5247377549
 H       -16.4643971396       -3.4921657748      -11.1480466624
 H       -12.2680931624       -7.8245348788      -10.8836781832
 H       -11.0555709977       -9.2116917316      -11.0347389960
 H       -10.5995374444       -7.5450920327      -11.0750258571
 H       -12.0111025310       -9.3198281529       -7.2285976564
 H       -11.8725868746      -10.4593502009       -8.4849360191
 H       -13.0123890237       -9.1702630360       -8.4829075769
 H        -5.5071864050      -12.2367539450       -8.8750520567
 H        -6.1975976434      -12.9902981312       -7.4560638953
 H        -4.4415848449      -12.8030366670       -7.5298646125
 H        -5.3346532302       -9.8638215801       -5.2821824987
 H        -4.1978309470      -11.1918407485       -5.6569101052
 H        -5.7796229116      -11.6921864009       -5.3920714032
 H         1.3395422156       -8.9549483434      -11.2228184336
 H        -0.1429544842       -8.0808715844      -11.2094809175
 H         0.0977370455       -9.1964777148      -12.5238729688
 H         0.8709496069      -11.7255732048      -10.8212416722
 H        -0.3181527974      -11.6769803322      -12.1711260758
 H        -0.7921670454      -12.3917559759      -10.7419729800
 H         4.7044185300       -5.1494244484       -8.7172114668
 H         5.1054332846       -6.6186518878       -9.2555912934
 H         5.6799320480       -6.0701918139       -7.6824849425
 H         3.8930612938       -8.4826962575       -5.9841102934
 H         5.0331111377       -7.2895519709       -5.8494140623
 H         5.2425022647       -8.5209268332       -6.9407027426
 H        -0.3849842775       -5.0229441562       -4.1974051029
 H        -1.9848097348       -4.6419037442       -4.2450224009
 H        -0.9148918685       -3.4787548022       -4.8526854725
 H        -0.4816946675       -7.1753805485       -5.2434420123
 H        -1.8379201317       -7.4263242016       -6.3878774208
 H        -2.2634082299       -6.8555987149       -4.7532982186
 H        -5.1638395285       -0.9895596703      -11.1194408451
 H        -5.3411404839       -0.3699715494       -9.6454918621
 H        -5.2934134011       -2.1105859384       -9.8912844011
 H        -1.5607437010       -1.4357983130      -11.4597663056
 H        -2.9226203110       -0.7742966806      -12.1396010809
 H        -2.9522445894       -2.4522602853      -11.8830446234
 H        -0.8204219006        3.5414947819       -7.1078419091
 H        -2.5145542766        2.9699569469       -7.0768266757
 H        -1.9937665243        4.6945734210       -6.4705980841
 H        -4.0886737531        3.3224776929       -8.2361936867
 H        -4.2673593224        4.5068021045       -9.5408147953
 H        -4.4068863347        5.1756762496       -7.9734255949
 H         4.0808695476        6.1339910067       -7.7365483386
 H         4.9729211355        6.8602715156       -9.1981983907
 H         3.5737037026        5.7202391216       -9.4035484553
 H         4.0933658575        8.7281366165       -7.1753578782
 H         2.6728567189        7.9918875709       -6.4686875767
 H         2.5527342296        9.3950677202       -7.5998652776
 H         4.5346872290        7.6421888165      -15.2206560845
 H         3.4081526758        7.2523691336      -16.5843801686
 H         4.0051410806        5.9676685931      -15.4966206492
 H         1.8436748905        8.6137128986      -16.1650537111
 H         1.8295173211        9.2855925546      -14.4936119423
 H         0.6168627216        8.1455723760      -15.1830174867
 H        -2.5248719421        2.6439397324      -12.9565751074
 H        -1.1640590537        1.7512489243      -13.7934576611
 H        -2.7997804900        1.8146533604      -14.3303591158
 H        -0.8463484396        3.8870506104      -16.6330743574
 H        -2.5261753031        3.6199029543      -16.7895163656
 H        -1.4702906294        2.2207554534      -16.3943736387
 H        -6.6890806899        6.0685995193      -14.4479921837
 H        -6.5963950589        7.7246035589      -15.0503247078
 H        -7.5677521587        7.3428986223      -13.6354323799
 H        -4.8650917213        9.1407113682      -11.8249960811
 H        -6.5928352647        8.9594729678      -12.1488099704
 H        -5.4369440692        9.5882960211      -13.3711779951
 Na       -2.5993517064        5.5869198607      -11.6049461711
 Na       -2.2970569856       -7.7804021911       -8.4976750835
