232

 C        -7.1669009994        5.8845355078      -11.6118095447
 C        -5.7651092183        6.4802118244      -11.9081842849
 O        -4.8585996015        6.1370609533      -11.1531751298
 C        -5.5684931439        7.5153314382      -13.1338823682
 C        -4.1027916295        7.2989390079      -13.8032629863
 O        -3.1073726109        7.5246969459      -13.0834464126
 C        -3.9716332495        7.0322004624      -15.2926095519
 C        -2.8623199054        5.9739907459      -15.6169889202
 C        -2.8647476345        4.7943800270      -14.6878372108
 O        -3.7338237578        4.6880347780      -13.8270843542
 C        -1.8291926792        3.5842565680      -14.7513527242
 C        -0.6290406008        4.0471191294      -13.9758874112
 O        -0.7505193997        4.7000202720      -12.9258735511
 C         0.8350505126        3.4869003052      -14.3120425416
 C         1.8386368404        4.6397975457      -14.4255729533
 C         1.4669319748        5.9252026416      -15.0758299409
 O         0.5824410080        6.0254208924      -15.9141159439
 C         2.3640515017        7.0542089895      -14.7758445789
 C         2.9613269879        7.0008404778      -13.2308610649
 O         3.3816992645        5.9737708401      -12.7359557987
 C         2.9408799172        8.3997921371      -12.5152868086
 C         3.6748116563        8.2446605512      -11.1463271745
 C         2.6988960205        8.2321220412       -9.9919234185
 O         1.7722571186        9.0575785091      -10.0021720368
 C         2.8007591591        7.4014230064       -8.7003704518
 C         1.5290405040        6.6231672160       -8.5924248972
 O         1.5596432023        5.3872681399       -8.7596800492
 C         0.2963747621        7.3573653676       -8.0772862894
 C        -0.8936321700        6.5707584816       -7.5111395618
 C        -1.7777681360        5.8475538281       -8.6428765617
 O        -2.0291568886        6.5089880811       -9.6482360377
 C        -2.2943912658        4.3399444689       -8.3412854350
 C        -1.8208037105        3.3391063294       -9.5609434905
 O        -2.2785142600        3.3216215691      -10.7113756371
 C        -0.9256137554        2.0692656955       -9.2199161703
 C        -1.3793363027        0.7443048393       -9.8506253746
 C        -2.8404912484        0.2436666477       -9.4924733365
 O        -3.4602722667        0.6801109161       -8.5390918964
 C        -3.3252437830       -1.2262699074      -10.0972631116
 C        -2.8096872124       -2.3091420468       -9.0460192612
 O        -1.7313150652       -2.8449825702       -9.1245298584
 C        -3.8266397188       -2.7242545989       -7.9123962377
 C        -3.0901081384       -3.4383681483       -6.7447330184
 C        -2.5462922351       -4.8346265921       -7.1036817583
 O        -2.9991487704       -5.4310321077       -8.0503667610
 C        -1.3649903548       -5.3854809387       -6.1163709388
 C        -0.1748223403       -5.4253708306       -7.1828713674
 O        -0.3573560924       -6.2255033171       -8.0591448225
 C         0.8903294782       -4.3030296658       -7.3574405002
 C         2.2232506849       -4.7417052485       -7.8240278240
 C         2.8009327526       -6.0772121257       -7.0091147850
 O         2.1927763794       -6.3761481839       -5.9874198844
 C         3.8648563098       -7.0307834302       -7.6591563579
 C         2.8639412553       -7.8660404950       -8.5831619592
 O         2.5027166821       -7.4253037568       -9.6519584905
 C         2.4821098329       -9.3305047845       -8.1104766083
 C         1.6839160537      -10.2106268847       -9.0884496791
 C         0.1917117410       -9.7912677273       -9.2423444528
 O        -0.4273382321       -9.2818287855       -8.3372701449
 C        -0.3566919919      -10.0152857102      -10.6231128907
 C        -1.9215954924       -9.6161047094      -10.5437747229
 O        -2.2774963726       -8.4889697773      -10.8430986454
 C        -3.0552435267      -10.5983858685      -10.0070499571
 C        -4.3720378431       -9.8885597676       -9.5735710068
 C        -4.5275066698       -9.8199458576       -8.0243163549
 O        -3.7203172666       -9.0973977438       -7.4476871941
 C        -5.4514519527      -10.7567127476       -7.2947331004
 C        -7.0012993010      -10.4876520277       -7.2549007231
 O        -7.8180489916      -11.3901280955       -7.3598698560
 C        -7.6531653625       -9.0742188447       -7.0870261054
 C        -9.1387997159       -8.9880390567       -7.3104101448
 C        -9.6864839918       -8.7165813121       -8.7275478725
 O        -8.9261729687       -8.5780540118       -9.6543566334
 C       -11.1702861445       -8.2909518071       -8.9238325654
 C       -11.4604622973       -6.9530625758       -8.1503658508
 O       -11.0130666465       -6.8538648470       -7.0275574997
 C       -12.1835997732       -5.7210748263       -8.8964879568
 C       -13.6834167462       -5.9931615546       -9.1311028032
 C       -14.1120682491       -5.0501784332      -10.2566848099
 O       -13.5969106542       -3.9498036450      -10.3471466336
 C       -15.4008812933       -5.4663288026      -11.1392006595
 C       -14.8488729598       -6.3657787572      -12.2692679104
 O       -14.8617520585       -7.5472430710      -11.9815830525
 C       -14.2541025335       -5.9180326396      -13.6133352060
 C       -16.4179275577       -6.2276003348      -10.2349289397
 C       -15.9998120455       -4.1786616183      -11.6392179212
 C       -11.3403240558       -8.2267255706      -10.4441383331
 C       -11.9815311592       -9.4003076719       -8.3389543611
 C        -5.3467248752      -12.1999621079       -7.8663912550
 C        -5.0315117928      -10.6641362102       -5.7313294763
 C         0.3869627397       -9.0218775159      -11.5506297782
 C        -0.2549521998      -11.5253400107      -11.1217834852
 C         4.9396018658       -6.2281388625       -8.3667515854
 C         4.4203640805       -7.8773966276       -6.5187717467
 C        -1.1772310866       -4.3775050423       -4.9796375060
 C        -1.4429709561       -6.8455532350       -5.6602037605
 C        -4.8518984018       -1.3557816607      -10.2347838104
 C        -2.6964959090       -1.5089757986      -11.4412250274
 C        -1.8095069422        3.8321198578       -6.8279317611
 C        -3.8317131930        4.5061481803       -8.3156369252
 C         4.1014026845        6.4236017449       -8.7462334455
 C         3.0309175784        8.4894025451       -7.6208817892
 C         3.7323514553        6.9566906656      -15.6274844328
 C         1.7282197687        8.4450577127      -15.0870514180
 C        -2.1814992252        2.2794190384      -14.0007496257
 C        -1.5621322351        3.2275230120      -16.2225388712
 C        -6.7865817723        7.2530890193      -14.1063306202
 C        -5.4567078496        9.0332788319      -12.7523021227
 H        -7.8142831511        6.7965754283      -11.4955766638
 H        -7.1335193333        5.2324616547      -10.6873558126
 H        -7.4036267416        5.3767080489      -12.5996086036
 H        -3.6198712223        7.9552242091      -15.7682427935
 H        -4.9109488701        6.7346909613      -15.6899529094
 H        -1.9054102485        6.5020703162      -15.6572311851
 H        -2.9094056233        5.6783237976      -16.6642479011
 H         0.8134596377        2.9309787352      -15.2402761892
 H         1.1549212065        2.8324894375      -13.5145744769
 H         2.8268582034        4.2443533683      -14.8209877691
 H         2.0609789374        4.9035000948      -13.4236767732
 H         1.8894021583        8.6477786717      -12.5020094775
 H         3.6015915854        9.0954520704      -13.0880116732
 H         4.3756847808        9.0802391674      -10.9271855601
 H         4.3558543422        7.4345261887      -11.2583192925
 H         0.0036704810        7.9650418310       -8.8707455595
 H         0.5896932481        8.0997284766       -7.2629672475
 H        -1.6461584243        7.1212317013       -6.9935553934
 H        -0.5211089004        5.7637260080       -6.8474740946
 H        -0.8248700523        1.9212475184       -8.1049139743
 H         0.0803196983        2.2848202068       -9.5294611149
 H        -0.7154629388       -0.0205483851       -9.6411113946
 H        -1.3434309688        0.8960567719      -10.9181038442
 H        -4.5507067833       -3.3543698739       -8.2184526712
 H        -4.3190158358       -1.7569083010       -7.5920122696
 H        -3.7347395135       -3.4498835302       -5.8979037819
 H        -2.3336082281       -2.6959403056       -6.2984332056
 H         0.9924211303       -3.6597401658       -6.5198413239
 H         0.3364157161       -3.5900493912       -7.9628927822
 H         3.0228456474       -4.0222588016       -7.7264590646
 H         2.1476573215       -4.9968934493       -8.9286355068
 H         1.9803879555       -9.3312721236       -7.1968557691
 H         3.4464483510       -9.6892951591       -7.9524689771
 H         1.6911173413      -11.2008444683       -8.6501536335
 H         2.0695790125      -10.2992561361      -10.1305016317
 H        -2.6435530452      -11.2350104431       -9.1858002195
 H        -3.4552820042      -11.2491714694      -10.9013242489
 H        -5.2382317933      -10.3942010327       -9.9862030806
 H        -4.4105569268       -8.8378833426       -9.9492839332
 H        -6.9514206176       -8.3878147360       -7.5991360628
 H        -7.5420908574       -8.8364222558       -6.0422350804
 H        -9.5864405065       -8.2558720683       -6.6149209095
 H        -9.5555251762       -9.9818236897       -7.0919772961
 H       -11.6046114324       -5.6673307415       -9.8061037677
 H       -12.0194683750       -4.8445513550       -8.2164618764
 H       -14.0770420371       -5.8481616709       -8.1658321058
 H       -13.7124390393       -7.1027923399       -9.3902765841
 H       -14.5566405133       -4.9343267443      -13.7720567854
 H       -14.4491721298       -6.6144369249      -14.4054069192
 H       -13.1636158264       -5.7696315237      -13.5650258086
 H       -16.7155400253       -5.5668173029       -9.3821398692
 H       -15.8301514111       -7.0617311109       -9.8177504902
 H       -17.2540739478       -6.5562408393      -10.8419235589
 H       -17.0099709139       -4.1596976473      -12.2022481391
 H       -15.3507844320       -3.7428372797      -12.3606509087
 H       -16.0904922057       -3.4968062917      -10.7998252715
 H       -12.2116248584       -7.6925988332      -10.7967854393
 H       -11.3332665317       -9.3239246321      -10.7749521300
 H       -10.5005548947       -7.7997885883      -11.0580701508
 H       -11.7142839749       -9.6443903966       -7.3495092986
 H       -11.8697349672      -10.2819354720       -8.9558057997
 H       -13.0791045811       -9.2059506163       -8.2494148422
 H        -5.8817747659      -12.2726917896       -8.8222522944
 H        -5.7787199565      -12.9635522056       -7.1546008202
 H        -4.2908940576      -12.5301259729       -7.9579663364
 H        -5.7085593851       -9.8934597167       -5.2509772712
 H        -4.0645626639      -10.2168673388       -5.6393716214
 H        -5.0510339892      -11.6490435181       -5.2640579313
 H         1.4655492459       -9.0931256313      -11.5090074130
 H         0.1069463475       -7.9840772432      -11.3344176316
 H        -0.0205900678       -9.3266541914      -12.5325863392
 H         0.8218553093      -11.9411999075      -11.0704114374
 H        -0.6981178660      -11.6332113632      -12.1121592264
 H        -0.8956503702      -12.1797996914      -10.6410637643
 H         4.6004901680       -5.2193234925       -8.6852842117
 H         5.2712570912       -6.6010870382       -9.3439522193
 H         5.7868340355       -5.9925326663       -7.7318915277
 H         3.7894202230       -8.4211487908       -5.7816143657
 H         5.1268189572       -7.3115407721       -5.8632778857
 H         5.1106566486       -8.6870583355       -6.8164100759
 H        -0.4646425445       -4.7881804518       -4.2304107886
 H        -2.0370737126       -4.1738794957       -4.3614872002
 H        -0.7418176467       -3.4310311707       -5.2361060372
 H        -0.6464687323       -6.9126106471       -4.9289600887
 H        -1.3302056233       -7.5492913613       -6.4638087119
 H        -2.4176612165       -6.9552466850       -5.1147251803
 H        -5.2339017753       -1.1972815201      -11.2486447924
 H        -5.3404923846       -0.5697658730       -9.7269464630
 H        -5.2693437348       -2.3501994122       -9.9457626590
 H        -1.6905915784       -1.8859637013      -11.4159964382
 H        -2.5419070914       -0.5863625552      -12.1040391754
 H        -3.2354034882       -2.2247282544      -12.1030778689
 H        -0.7838813139        3.9830649525       -6.6346965619
 H        -2.0771978617        2.7756295793       -6.8999430298
 H        -2.3477097243        4.3824941799       -6.0898323083
 H        -4.2789279311        3.5702202901       -8.1980901984
 H        -4.1096071121        4.9268032200       -9.3039511721
 H        -4.2139397478        5.3161140159       -7.6686396421
 H         4.3959961264        6.3803902699       -7.7060924998
 H         4.8879025526        6.9272464971       -9.3795306269
 H         3.7553316731        5.4292910568       -9.0965818139
 H         4.0327513562        8.7528602564       -7.4280728033
 H         2.6321810402        8.1526008821       -6.6166658928
 H         2.5089922680        9.3773710465       -7.8440264183
 H         4.2672760101        7.9062034333      -15.5207784610
 H         3.5523462891        6.7934694888      -16.6794544604
 H         4.3614835237        6.1112421350      -15.2419253508
 H         1.8425360134        8.7248435813      -16.1564887379
 H         1.9836785476        9.2867378317      -14.3924437678
 H         0.6286435906        8.2078761594      -15.0348926326
 H        -2.4251217682        2.3318813094      -12.9698273736
 H        -1.4088286916        1.4951554667      -14.1025049222
 H        -3.0958784474        1.9112309525      -14.3720371895
 H        -0.9516505659        4.0205642804      -16.6653141108
 H        -2.4788719769        3.0117658430      -16.8209522614
 H        -0.9762596471        2.3180524646      -16.1847687028
 H        -6.8322230875        6.1928611149      -14.4635524727
 H        -6.6539348802        7.7737721574      -15.0377973507
 H        -7.7257194098        7.5068497053      -13.6509201818
 H        -4.7223867462        9.0443438561      -11.9026500180
 H        -6.3559208924        9.5161679363      -12.4433013449
 H        -4.8924428463        9.6661102477      -13.4706731889
 Na       -2.6076656314        5.4037338356      -11.6536328103
 Na       -2.1979552983       -7.6800933405       -8.5520677825
