232

 C        -7.0617450338        5.7311377341      -11.8189742770
 C        -5.6857980798        6.5888016881      -11.9171806224
 O        -4.7995304208        6.2527680607      -11.1840444221
 C        -5.5374441176        7.4867412211      -13.1628380350
 C        -4.1596186273        7.1898212668      -13.8155961127
 O        -3.2033635817        7.4355152280      -13.0727682791
 C        -3.9436294693        6.8762776247      -15.2828382267
 C        -2.7709316915        5.8558100670      -15.5650782383
 C        -2.9910666447        4.6388907786      -14.7097202595
 O        -3.9012187792        4.6177768658      -13.8744436939
 C        -1.8814299978        3.4840418720      -14.8428265674
 C        -0.6381648363        3.9018563776      -14.0162940374
 O        -0.7475444695        4.6027159905      -13.0505816560
 C         0.7947669249        3.4239599891      -14.3013291181
 C         1.8092133015        4.5834849508      -14.3075283913
 C         1.5291199456        5.9138575078      -15.1370771461
 O         0.5619766565        6.0159309581      -15.9106961581
 C         2.5306436798        7.1427169972      -14.7503398296
 C         3.0044078576        7.2220768156      -13.2752048824
 O         3.5342361759        6.2181206102      -12.7726736594
 C         3.0837969545        8.4614538934      -12.4832932963
 C         3.8582765910        8.2903010248      -11.1247511555
 C         2.7629425519        8.2133990681      -10.0475645943
 O         1.8456157480        8.9974294536      -10.1388939801
 C         2.8537134543        7.3490736202       -8.6870382564
 C         1.5649876704        6.4274298516       -8.4458159777
 O         1.3911365311        5.2286295097       -8.7140839851
 C         0.3080702824        7.2744904484       -8.0866237454
 C        -0.8639333601        6.5687540923       -7.4448256627
 C        -1.5539121138        5.7282852726       -8.5496218659
 O        -1.8634994718        6.2665810400       -9.5570074393
 C        -2.2062212256        4.3191589179       -8.2993888009
 C        -1.9467452628        3.2833684779       -9.3423738519
 O        -2.3873813429        3.4596028327      -10.4565845741
 C        -1.0753546190        1.9866466713       -9.0893432753
 C        -1.4705562375        0.7104904341       -9.7933856149
 C        -2.8771077002        0.1030297412       -9.4013063882
 O        -3.5898901689        0.7200216432       -8.6293536184
 C        -3.2928657049       -1.2117474266      -10.1108671579
 C        -2.8878151019       -2.2694227325       -9.0710726280
 O        -1.7604786668       -2.7371358509       -9.0392754925
 C        -3.8643621534       -2.6628310072       -7.9728960015
 C        -3.1358686215       -3.3452034821       -6.8171640421
 C        -2.6352627084       -4.7112247888       -7.0489187728
 O        -3.0097080043       -5.5052905744       -7.9154457465
 C        -1.3723488089       -5.2801390632       -6.1593258807
 C        -0.2868360523       -5.2643424162       -7.3044275970
 O        -0.2442535388       -6.2073645979       -8.1137253656
 C         0.8735746462       -4.3226219945       -7.2523976115
 C         2.2046935167       -4.7839833626       -7.7188866896
 C         2.6854695954       -6.0427849763       -6.9971461432
 O         2.2498457885       -6.3944517544       -5.9484718991
 C         3.8092191510       -7.0370911241       -7.6555943644
 C         2.9919802097       -7.9637002807       -8.6453810236
 O         2.5419512865       -7.5590188922       -9.7038380662
 C         2.4272510297       -9.2951637097       -8.0033654501
 C         1.6242711800      -10.1634909691       -8.9179620989
 C         0.2279755972       -9.6724519443       -9.2726407882
 O        -0.4203321374       -9.0990230157       -8.3951263515
 C        -0.4661257322       -9.9556453077      -10.7299168299
 C        -1.9540575449       -9.5099921303      -10.5481655783
 O        -2.2391879728       -8.3915572279      -10.9276370521
 C        -3.0020394999      -10.5217887917      -10.0706086202
 C        -4.3288511991       -9.9227275464       -9.6614466219
 C        -4.4992746500       -9.7775789455       -8.0784312892
 O        -3.7100164925       -8.9925052729       -7.5042964542
 C        -5.4284087011      -10.6326272253       -7.2070497904
 C        -7.0431574249      -10.4633707470       -7.3067066805
 O        -7.7034411222      -11.4792951857       -7.3611898764
 C        -7.5927081064       -9.0527726846       -6.9611626618
 C        -9.0726523223       -8.9066550346       -7.2079872654
 C        -9.5634259815       -8.5629537004       -8.7058787939
 O        -8.9748359356       -8.7398333054       -9.7066944257
 C       -11.2175639971       -8.3201915800       -8.8923656152
 C       -11.4383484426       -7.0050724966       -8.0913508143
 O       -11.1430300637       -6.8633948071       -6.8977269836
 C       -12.1910745325       -5.8235106989       -8.8288077381
 C       -13.6679913446       -6.0915684297       -9.1920431808
 C       -14.1661931903       -5.1134218035      -10.2280016434
 O       -13.6097650882       -4.0831030617      -10.5169425444
 C       -15.4192300593       -5.4297143689      -11.0718593310
 C       -14.8599898941       -6.4140400286      -12.1815820203
 O       -14.6570416566       -7.5752918723      -11.8981534302
 C       -14.3293798801       -5.9258633587      -13.5613684358
 C       -16.4917821004       -6.2490767756      -10.3676364169
 C       -16.0543025214       -3.9954996430      -11.4902562635
 C       -11.5406386513       -8.2012522804      -10.4016765932
 C       -12.1215562069       -9.4423520244       -8.3445993671
 C        -5.2061596416      -12.0788954881       -7.7987785171
 C        -4.9214290856      -10.6109736725       -5.7137130135
 C         0.2866363732       -9.0769422712      -11.7509195993
 C        -0.3498931257      -11.4098032218      -11.1500998010
 C         4.9383525758       -6.3955197359       -8.4427052122
 C         4.4074249864       -7.8326697266       -6.4664466618
 C        -1.0790813830       -4.3068529297       -5.0077402037
 C        -1.6182329169       -6.7455080289       -5.6759727097
 C        -4.8241137495       -1.2439041961      -10.2966633261
 C        -2.5975881581       -1.5005246854      -11.4868004205
 C        -1.8961413126        3.8534296240       -6.8550029886
 C        -3.7190476707        4.5728411323       -8.2090134851
 C         4.1743831907        6.4042735767       -8.6338962355
 C         3.0548921648        8.4750279838       -7.6652812616
 C         3.7660346806        6.8925474647      -15.7179776433
 C         1.7581725375        8.4320340467      -15.1318391235
 C        -2.5232572204        2.2171465346      -14.1372308507
 C        -1.4097523335        3.1862747218      -16.3416267535
 C        -6.7476123440        7.4775630074      -14.1089166899
 C        -5.4440322114        9.0361241722      -12.8141070379
 H        -7.8453951476        6.3701479616      -11.3763782142
 H        -6.7606792898        4.9350075053      -11.1085292076
 H        -7.3704668819        5.3931727388      -12.8575254436
 H        -3.7198387573        7.8536396829      -15.7900186146
 H        -4.8617754994        6.4521787039      -15.6786681027
 H        -1.8331099370        6.3044123836      -15.4701544532
 H        -2.6719698762        5.5979814073      -16.6452581872
 H         0.9008323262        2.8645285697      -15.2061477098
 H         1.0741584625        2.6902589687      -13.5191791289
 H         2.7772865784        4.0945320818      -14.5933542691
 H         1.9763915963        4.9294580083      -13.3073223725
 H         2.0316104817        8.6620284819      -12.3007092073
 H         3.5878815461        9.2869223908      -12.9943588800
 H         4.5214766055        9.2055934552      -11.0082705896
 H         4.6287481886        7.4807770530      -11.1138998434
 H         0.0077631693        7.7586510152       -9.0351284033
 H         0.5101481353        8.1218324575       -7.3950394947
 H        -1.7332398535        7.2221510844       -7.1583927765
 H        -0.5791891761        5.9177001413       -6.5977291129
 H        -0.9044295995        1.7481150937       -8.0130820314
 H        -0.0552086158        2.2584000414       -9.4304325225
 H        -0.7662170291       -0.0038385490       -9.5204321217
 H        -1.3615426862        0.8424260396      -10.8760462008
 H        -4.5571972094       -3.4122361825       -8.3327473075
 H        -4.4542298702       -1.7321461518       -7.7064500768
 H        -3.7957780290       -3.3776404932       -5.9093392568
 H        -2.3684608649       -2.6501635952       -6.3546781908
 H         0.9252795736       -3.8603768433       -6.2630209040
 H         0.5490625327       -3.4017521954       -7.7596969811
 H         3.0461917713       -4.0543158984       -7.6389262070
 H         2.1286050720       -5.0134946082       -8.7724529198
 H         1.9130108627       -9.0107566839       -7.1487095491
 H         3.3544236882       -9.7441943197       -7.6041971256
 H         1.3998544078      -11.1128972314       -8.4390211428
 H         2.1740804396      -10.4220887329       -9.9120592482
 H        -2.5590017238      -11.1174159069       -9.2112470404
 H        -3.2917903892      -11.2195893086      -10.9476009554
 H        -5.1739527359      -10.4790051344      -10.1086641130
 H        -4.4213188738       -8.8304229583      -10.0389416815
 H        -6.9311690616       -8.3418198495       -7.4893514608
 H        -7.3152228432       -8.8663434641       -5.8988370784
 H        -9.4827516135       -8.1713186230       -6.5858102518
 H        -9.6173858873       -9.7813067820       -7.0560942814
 H       -11.4727612769       -5.6396365733       -9.6804382633
 H       -12.1279752414       -5.0538988096       -8.0729817729
 H       -14.0746640552       -6.0050197667       -8.1463331830
 H       -13.6944655679       -7.1418016308       -9.4907856704
 H       -14.8727769223       -5.0040978267      -13.7779530227
 H       -14.4816826153       -6.7307969096      -14.3081850330
 H       -13.3068108536       -5.5983801328      -13.6288624806
 H       -16.6460786263       -5.9026936545       -9.3255120626
 H       -16.0424159461       -7.2150242129      -10.3208521472
 H       -17.3760963344       -6.1770841775      -10.9030424179
 H       -16.9675648178       -4.0824128327      -11.9608332282
 H       -15.4837969493       -3.4871592966      -12.2701749826
 H       -16.2398452635       -3.3808670906      -10.6046833163
 H       -12.5185508796       -7.6819024257      -10.5530595706
 H       -11.5131368772       -9.1240819706      -10.8740258444
 H       -10.8450377341       -7.5410670516      -10.9849464141
 H       -11.9107051432       -9.7912769650       -7.2469909870
 H       -12.0057008257      -10.3070274218       -9.0019753930
 H       -13.2100713805       -9.2243859465       -8.3261042482
 H        -5.8759475193      -12.2922314305       -8.6827521331
 H        -5.2864148582      -12.8563402795       -7.0777992195
 H        -4.1508730704      -12.2051547393       -8.1103359093
 H        -5.7503393297      -10.2077127581       -5.1655802882
 H        -4.1837187678       -9.7742145130       -5.5510688349
 H        -4.5980024081      -11.5812179955       -5.3514926530
 H         1.2894826672       -9.4802334341      -11.7829095046
 H         0.3851915617       -8.0136443389      -11.3867035874
 H        -0.1644541039       -9.1650612977      -12.7647191487
 H         0.6974310264      -11.6158060503      -11.2753266996
 H        -0.9634704956      -11.6827812361      -11.9804209235
 H        -0.7785504749      -12.0923946432      -10.4187676972
 H         4.6443633692       -5.5257463314       -9.0494479301
 H         5.3519725736       -7.0725448007       -9.2802545322
 H         5.7906254854       -5.9967610144       -7.8553081315
 H         3.7687015957       -8.3483527208       -5.6827070690
 H         5.1961483227       -7.3885975225       -5.8665178355
 H         4.9452550059       -8.7273616399       -6.8451207031
 H        -0.3728592222       -4.6884183775       -4.3065872391
 H        -1.9897799554       -4.1017334917       -4.3771999699
 H        -0.6564135974       -3.3362833861       -5.2806443461
 H        -1.1751891850       -6.6951902149       -4.6302074655
 H        -1.2518398946       -7.5718008294       -6.2901945821
 H        -2.6402290551       -6.7611066404       -5.4013024256
 H        -5.2576848277       -0.7278766562      -11.1978638363
 H        -5.3371553341       -0.7734758625       -9.4619148151
 H        -5.1771649161       -2.3370484934      -10.4213643516
 H        -1.6872284076       -2.1083286984      -11.4284669802
 H        -2.2807767799       -0.6618435596      -12.1427271029
 H        -3.2268191292       -2.1387257623      -12.1202623695
 H        -0.8207257169        3.9980400484       -6.7645421528
 H        -2.1925047852        2.8280442473       -6.7902740962
 H        -2.3831629062        4.4244818781       -6.1372181689
 H        -4.2535170433        3.6329632605       -8.1513429919
 H        -4.0713434433        5.1714089413       -9.0461152948
 H        -3.9109115425        5.2136151602       -7.4247410468
 H         4.4123997074        6.2708523576       -7.6055142621
 H         5.0036231446        6.8998339927       -9.1950310163
 H         3.8250582749        5.4350683227       -9.0691896151
 H         3.9816813393        9.0477523404       -7.6419747863
 H         2.9877464642        8.0349114543       -6.7155745095
 H         2.2319967836        9.1995637905       -7.6498772994
 H         4.2202567088        7.8776792558      -16.0410784491
 H         3.4562240059        6.3869638542      -16.5854161372
 H         4.4922695666        6.2586472177      -15.2414186559
 H         1.5159795912        8.4196021653      -16.2496528234
 H         2.2508734741        9.3930594786      -14.8314061781
 H         0.7529257479        8.3143634142      -14.6449848793
 H        -2.6188339727        2.3158626664      -13.0607613029
 H        -1.9548367460        1.3647166213      -14.1867205534
 H        -3.6037554813        2.0775665476      -14.4083075721
 H        -1.1681521998        4.0785237355      -17.0110727236
 H        -2.1754944730        2.5007473726      -16.8140864258
 H        -0.5771826846        2.5470958770      -16.2852016334
 H        -6.8544194109        6.5698757405      -14.6533379793
 H        -6.5055336066        8.1422699595      -14.9398457742
 H        -7.6899911897        7.7454129483      -13.6091507047
 H        -4.7351333415        9.1357974129      -11.9915746673
 H        -6.4306424291        9.5225757220      -12.5194742909
 H        -4.9585578592        9.6057822914      -13.5631731766
 Na       -2.6902007163        5.3289383177      -11.7607088936
 Na       -2.1052660998       -7.5253943748       -8.5995307951
