232

 C        -6.9594796936        5.6479770150      -11.9490158531
 C        -5.6665497727        6.4827632764      -12.0750192479
 O        -4.7999515144        6.4726146664      -11.2361057841
 C        -5.4970904778        7.5468226150      -13.2600769356
 C        -4.1123968929        7.2069664794      -13.7997211173
 O        -3.1217335264        7.1957143624      -13.1165903138
 C        -4.0024970895        6.7885820618      -15.3245893006
 C        -2.7845139293        5.8437867100      -15.4871230418
 C        -2.9886622962        4.4977985401      -14.8037911375
 O        -3.8818743423        4.3930916690      -13.9734825873
 C        -1.9768749077        3.3416736411      -14.8838728079
 C        -0.6192562054        3.8615307350      -13.9812448563
 O        -0.8359655556        4.5867724834      -13.0470554800
 C         0.7738773062        3.4470361427      -14.4418643736
 C         1.8134163013        4.5384028833      -14.1819403921
 C         1.5520909092        5.8744690384      -14.9201360006
 O         0.6898197726        5.9631051066      -15.7502574575
 C         2.5652702846        7.1315570577      -14.7845000414
 C         3.2069943341        7.2789178143      -13.3621299766
 O         3.6749389368        6.2770909892      -12.8873398011
 C         3.2746702013        8.6765540033      -12.5421393638
 C         3.8579767167        8.3246033437      -11.1647262584
 C         2.7797212279        8.1697607640      -10.0381987072
 O         1.7988993478        8.8230572132      -10.1577504835
 C         2.8906400867        7.2896430220       -8.6896837070
 C         1.5470522132        6.4851228240       -8.4809104466
 O         1.4468669056        5.2981055570       -8.5968842838
 C         0.3267043506        7.3418541141       -8.0858795178
 C        -0.7607218376        6.4954978030       -7.4739853175
 C        -1.5375933165        5.6778456631       -8.5149559808
 O        -1.6128582256        6.0167441964       -9.6816870109
 C        -2.2271452451        4.3013248622       -8.0647267953
 C        -2.0432249449        3.1704918311       -9.2350600518
 O        -2.4652105196        3.4306926118      -10.3423149829
 C        -1.1693825614        1.9554248703       -8.9221774555
 C        -1.5340956680        0.7504134742       -9.7720433977
 C        -2.9283974364        0.1296791333       -9.4687932625
 O        -3.6885243939        0.6746234004       -8.7308465626
 C        -3.3212150413       -1.2533547049      -10.1124995542
 C        -2.8841971724       -2.2890147909       -9.0471878342
 O        -1.7104335127       -2.6098643435       -9.0084874000
 C        -3.9253086905       -2.7099945418       -7.9961191825
 C        -3.2427809618       -3.3327077501       -6.7907736690
 C        -2.6753612914       -4.6802693904       -7.0484212510
 O        -3.2129504598       -5.4475749627       -7.8250443697
 C        -1.3900128925       -5.1362173477       -6.1499928952
 C        -0.1237604304       -5.3136070012       -7.2579122395
 O        -0.1256059341       -6.0785286423       -8.2125856402
 C         0.9789114661       -4.2715071274       -7.1268838480
 C         2.2716419891       -4.8973121893       -7.7893231917
 C         2.6978920269       -6.1146269901       -6.9622590261
 O         2.1974817715       -6.3416588816       -5.8998404407
 C         3.7383217598       -7.0970704806       -7.6622548426
 C         2.8467456669       -8.0060361530       -8.5489937852
 O         2.6994765597       -7.7159099768       -9.7020870517
 C         2.3134918446       -9.3234813162       -7.9485911195
 C         1.6013102734      -10.1978838873       -8.9124586186
 C         0.2248717314       -9.6063983598       -9.2697119153
 O        -0.3756838866       -8.9344330231       -8.4584627868
 C        -0.4254920046       -9.9163783282      -10.7241149050
 C        -1.9973193650       -9.3765083539      -10.6781154103
 O        -2.3203462952       -8.2337205576      -10.8864768741
 C        -2.9387081169      -10.4468171521      -10.1268083376
 C        -4.3812172821       -9.8928512598       -9.6599191571
 C        -4.3994767148       -9.6324911395       -8.1520954718
 O        -3.6992289725       -8.7775363911       -7.6295697340
 C        -5.2874861201      -10.6326942613       -7.2157814266
 C        -6.9678870782      -10.4330143704       -7.2388595605
 O        -7.6362636429      -11.3925316917       -7.4153715030
 C        -7.5517187862       -8.9897989773       -7.0361147567
 C        -9.1510303787       -8.9111674622       -7.2623113070
 C        -9.6712763408       -8.7776826111       -8.7051776901
 O        -8.8302366808       -8.8312461676       -9.6012208855
 C       -11.2036582055       -8.3466584712       -8.8886656178
 C       -11.5701758471       -6.9927881060       -8.0327016205
 O       -11.2879941783       -6.9052430367       -6.8597578905
 C       -12.2599752735       -5.8374356183       -8.7614532591
 C       -13.7458538471       -6.1052511157       -9.1955346028
 C       -14.1671399363       -5.0875246790      -10.2319233782
 O       -13.4267502107       -4.1643869704      -10.5553076473
 C       -15.4611548415       -5.4984354541      -11.0430616055
 C       -14.8536287999       -6.4035728812      -12.1241955855
 O       -14.4752899346       -7.5268381485      -11.8134453362
 C       -14.4955678638       -5.8289212955      -13.5261570956
 C       -16.6796855578       -6.2924687174      -10.3342199370
 C       -16.0439834000       -4.0951736580      -11.4754677490
 C       -11.5178579395       -8.1839441489      -10.3283250890
 C       -12.1065500447       -9.4391601088       -8.2310537609
 C        -4.9914591483      -12.1499183124       -7.7307400712
 C        -4.9297981969      -10.5684988032       -5.7749295096
 C         0.1787730721       -9.0680874625      -11.9031388082
 C        -0.3687427864      -11.3842324392      -11.0627818658
 C         4.8535194023       -6.4580265787       -8.5492694538
 C         4.4455198723       -7.8019846388       -6.5086563266
 C        -1.0306519634       -4.2686628932       -5.0212997367
 C        -1.8497869182       -6.5382604038       -5.6666122499
 C        -4.8400153644       -1.0632985540      -10.4036695605
 C        -2.5296599714       -1.4796928291      -11.4255421506
 C        -1.7988156637        3.6973522693       -6.5888255548
 C        -3.8129122654        4.6517438810       -8.1731512878
 C         4.1569301456        6.3425396215       -8.5946806517
 C         3.1125708495        8.3387249641       -7.5882189810
 C         3.7210029506        6.8913592066      -15.7666212541
 C         1.7506923672        8.4272418649      -15.2646953131
 C        -2.7433675118        2.1766070652      -14.3392243105
 C        -1.5604118825        3.1343147338      -16.3560307642
 C        -6.7309738211        7.6110399418      -14.2661562783
 C        -5.4254595508        9.0116279224      -12.6349615404
 H        -7.6280220338        6.3464224578      -11.4564668951
 H        -6.7097121622        4.8480700594      -11.2857276924
 H        -7.3665790601        5.4150797401      -12.8951748811
 H        -3.8689714125        7.7054030703      -15.9139544819
 H        -4.9150593002        6.2312789879      -15.6745475775
 H        -1.9035640646        6.4037967344      -15.1504342682
 H        -2.4430836934        5.7529681598      -16.5142514152
 H         0.7948576254        2.9628817409      -15.4465416358
 H         1.0565734785        2.5712069000      -13.8020264389
 H         2.7628223322        4.1767401620      -14.4725667683
 H         1.9122305668        4.6821225642      -13.0667128156
 H         2.2615448576        9.1050274849      -12.3724172505
 H         3.9515908041        9.3949013295      -12.9525085960
 H         4.6843442087        9.0198811716      -10.9700501989
 H         4.4481182238        7.3341947325      -11.1417646398
 H        -0.0788852884        7.9825014407       -8.9695655726
 H         0.5014657973        8.0580145868       -7.3336398788
 H        -1.5713573318        7.2019194071       -7.0909853141
 H        -0.4488089047        5.8328194393       -6.6861732547
 H        -1.2644297750        1.7361246382       -7.8854518917
 H        -0.0808144781        2.2470685066       -9.0237346235
 H        -0.7787113004       -0.1318294926       -9.6068665098
 H        -1.4590769994        1.0426466086      -10.8252778320
 H        -4.7084475352       -3.4792045593       -8.5017412347
 H        -4.4434902138       -1.8102858070       -7.7833974556
 H        -3.8316312082       -3.3118026623       -5.8152394867
 H        -2.5289999163       -2.6246204260       -6.4994081279
 H         1.1300368075       -3.9272186387       -6.0727782533
 H         0.6129911114       -3.2945364811       -7.5026682468
 H         3.1857867866       -4.2530304027       -7.7635705478
 H         2.1564093877       -5.1374380508       -8.8217898745
 H         1.6618878141       -8.9697108293       -7.0611376466
 H         3.2274989921       -9.6893204106       -7.3914785031
 H         1.3177101665      -11.2267530979       -8.5079967490
 H         2.1838050343      -10.3879357278       -9.7931804109
 H        -2.3970229082      -10.8757876934       -9.2416161314
 H        -3.1309880426      -11.2087831267      -10.8080615737
 H        -5.2066850991      -10.6158829881       -9.9399132734
 H        -4.6290669142       -8.9244387131      -10.1439271605
 H        -6.9493945475       -8.3190244959       -7.6464418962
 H        -7.2800920290       -8.6355183337       -5.9981765081
 H        -9.3951240430       -7.9081664476       -6.9752833914
 H        -9.7870126428       -9.5498342701       -6.6875838128
 H       -11.5686666739       -5.8067255223       -9.6374757648
 H       -12.0906067656       -5.0062532336       -8.1060199147
 H       -14.3304616848       -5.9962369099       -8.2212172101
 H       -13.7108737319       -7.0943869447       -9.5214316980
 H       -15.1871437464       -4.9955235970      -13.8647686865
 H       -14.3801181437       -6.6676104480      -14.2266190975
 H       -13.5338424101       -5.3126072705      -13.5081815515
 H       -16.7449811997       -6.0087144894       -9.3386769427
 H       -16.4407811964       -7.3148037346      -10.3551897303
 H       -17.6252058280       -5.9526399260      -10.7859425056
 H       -16.8935300851       -4.1867329496      -12.0910558015
 H       -15.3946377398       -3.5504218925      -12.1433403685
 H       -16.4102464414       -3.5532745891      -10.6258497453
 H       -12.5839621849       -8.1067200205      -10.4829525241
 H       -11.0975050095       -8.9404398094      -10.9510387985
 H       -11.1634798461       -7.2614854893      -10.6904658748
 H       -12.0475089636       -9.5664065685       -7.1225146344
 H       -11.9512246907      -10.4523047878       -8.7235513831
 H       -13.1690434562       -9.2295958364       -8.4198178841
 H        -5.5689483263      -12.3714065188       -8.6313268222
 H        -5.2263829532      -12.8608446499       -6.9678742405
 H        -3.9477454536      -12.3854622847       -7.9261910389
 H        -5.8358140610      -10.5823083268       -5.2141606311
 H        -4.5560624419       -9.5514723987       -5.5328733220
 H        -4.2696931475      -11.3903134662       -5.4547245923
 H         1.1618534954       -9.5464053649      -12.1517134911
 H         0.3884317132       -8.0536225821      -11.5422470410
 H        -0.4615786618       -9.1285160762      -12.7824135705
 H         0.5824485900      -11.5527322417      -11.3887024551
 H        -1.1180738433      -11.6297162390      -11.7953149124
 H        -0.6575784003      -12.1268371685      -10.2649091731
 H         4.6069067545       -5.9168155933       -9.4698800480
 H         5.5195593562       -7.2679723257       -8.9074861849
 H         5.5175143645       -5.7448138625       -7.9912383446
 H         3.7402226248       -8.2099213263       -5.8216364430
 H         5.0975007308       -7.2122475075       -5.8851679778
 H         5.0287128636       -8.7081051344       -6.7113422690
 H        -0.1075361193       -4.6268651552       -4.5643055025
 H        -1.7918107903       -4.3784158625       -4.2394381426
 H        -0.8264301359       -3.1891541318       -5.1274859894
 H        -1.6109112451       -6.5577611114       -4.5867264742
 H        -1.2855308816       -7.3083590307       -6.2550566433
 H        -2.9199429809       -6.6579359803       -5.6021860417
 H        -5.0971739249       -0.1293447797      -10.9485770818
 H        -5.4825345185       -1.0367222182       -9.4305539698
 H        -5.2315884575       -1.8263433785      -11.0477101132
 H        -1.5244948217       -1.9289062092      -11.2385056177
 H        -2.3583260339       -0.6354653913      -12.0199982544
 H        -2.9418913986       -2.2379744813      -12.0595078747
 H        -0.7808514228        3.3591992178       -6.7731516442
 H        -2.4896936708        2.9492039378       -6.2845835861
 H        -1.7599070874        4.4570539422       -5.7544996144
 H        -4.4671829253        3.7625724399       -8.1506253833
 H        -3.9401629135        5.1091395289       -9.1156264570
 H        -4.1677144356        5.4180226479       -7.5081190605
 H         4.2111350730        5.9391903038       -7.5654239817
 H         4.9932542572        6.9504690372       -8.8115097787
 H         3.9643787157        5.5383456238       -9.2690904883
 H         3.8991840051        9.1075699080       -7.7870450906
 H         3.3422636690        7.9677940571       -6.6079728690
 H         2.1852772599        8.9418926132       -7.4112622875
 H         4.1379581412        7.8324203990      -16.0713645904
 H         3.5040882615        6.2827881607      -16.6616001208
 H         4.4242244020        6.3025416320      -15.2240989024
 H         1.1393378601        8.2670038726      -16.1475381448
 H         2.5663730235        9.1019597581      -15.5577142300
 H         1.1594240535        8.8937560552      -14.4796020373
 H        -2.8523988976        2.2150465809      -13.2403364744
 H        -2.1190614873        1.2865789419      -14.3326156585
 H        -3.7845618952        2.0966217220      -14.6722015672
 H        -1.3894858592        4.1104442188      -16.8159020672
 H        -2.3660205928        2.6141238121      -16.8664267562
 H        -0.6816375901        2.4378296332      -16.5629132999
 H        -6.7431618041        6.6698603921      -14.7726349013
 H        -6.6702602702        8.2671081194      -15.1274965423
 H        -7.6634181420        7.7347608800      -13.7039761715
 H        -4.5906483411        9.1625749119      -11.9711483021
 H        -6.3726160205        9.3493102579      -12.1698994281
 H        -5.2207289794        9.6868533652      -13.4580598240
 Na       -2.7545044608        5.3560289488      -11.8178805268
 Na       -2.0948817380       -7.4049857364       -8.6485867035
