232

 C        -6.8683660200        5.5037643404      -12.4594423875
 C        -5.6220995323        6.4731611916      -12.1918340097
 O        -4.9711481426        6.2736448717      -11.2152554126
 C        -5.3713712234        7.5662939868      -13.3011179654
 C        -3.9499542867        7.1352806430      -13.9433602316
 O        -2.9346800377        7.1717975211      -13.2686611470
 C        -3.9827499700        6.7837529319      -15.4400250073
 C        -2.9158623349        5.6675158407      -15.7239261379
 C        -3.1092032705        4.3328992515      -14.9204832468
 O        -3.9654693279        4.2718546656      -14.0495229966
 C        -2.0414398374        3.2423785487      -15.1353945348
 C        -0.7984555408        3.7654877974      -14.1917433070
 O        -1.0006561899        4.1390393837      -13.0708558442
 C         0.6847460830        3.5779929601      -14.5031099007
 C         1.4852355352        4.6775140000      -13.9167667979
 C         1.4162326608        5.9818861591      -14.6760418125
 O         0.4388646411        6.2030232046      -15.3629509295
 C         2.6399448406        7.0417208251      -14.6933326454
 C         3.5105530546        7.0917204867      -13.3559004054
 O         4.1817693774        6.1279482023      -13.0146977633
 C         3.5113494134        8.3981309270      -12.5649186816
 C         3.9849309030        8.3160031468      -11.1290301121
 C         2.7045204076        8.1062334660      -10.1852546196
 O         1.6321009630        8.4943028979      -10.5263362771
 C         2.9681920826        7.3394582799       -8.7753580012
 C         1.6094234739        6.5094731084       -8.3786132961
 O         1.6740097543        5.3215120352       -8.2378981699
 C         0.3241024644        7.2453784593       -8.1494195692
 C        -0.6730553225        6.3320510441       -7.5039657962
 C        -1.3406135953        5.4034998113       -8.5788843721
 O        -1.0266038942        5.4153383840       -9.7360944215
 C        -2.4115890151        4.2693206177       -7.8842352663
 C        -2.2673806053        3.0959450506       -8.9248657907
 O        -2.7368362685        3.1791247737      -10.0495155330
 C        -1.4083465700        1.8889330780       -8.5633472063
 C        -1.5761951726        0.7722422051       -9.5766092787
 C        -3.0616080135        0.2026326550       -9.5722706237
 O        -3.8614401381        0.7725224751       -8.8856156498
 C        -3.3903735533       -1.1386342463      -10.2887151299
 C        -3.0432025965       -2.1517585470       -9.1143800439
 O        -1.8689061446       -2.3129589378       -8.8377053109
 C        -4.0642583943       -2.4941260920       -8.0584748768
 C        -3.3955748481       -3.0785318246       -6.7778396765
 C        -2.7543612142       -4.3892553783       -7.0549725256
 O        -3.1822100131       -5.1563191395       -7.9064337285
 C        -1.4653302825       -4.8691485884       -6.2529275664
 C        -0.3449938526       -5.0172921177       -7.2542471176
 O        -0.4736863952       -5.7635018606       -8.2267598208
 C         0.9623909057       -4.2240572750       -7.1196173039
 C         2.1708508224       -5.0127708971       -7.6997124522
 C         2.6182504829       -6.2995772974       -6.9430753329
 O         2.2536887231       -6.5676495609       -5.8500634490
 C         3.6848270813       -7.2190891137       -7.6359208863
 C         2.9177984772       -8.2816460676       -8.5259627490
 O         2.8603783830       -8.1549919879       -9.7196552436
 C         2.2429058922       -9.4917063860       -7.8743609028
 C         1.2994742133      -10.1558001157       -8.9228058599
 C         0.0730922328       -9.4173869071       -9.3051932788
 O        -0.2887051392       -8.4677176673       -8.6519918095
 C        -0.6230410495       -9.7925022240      -10.7973928007
 C        -2.1148595955       -9.3221666764      -10.5488106967
 O        -2.3671660214       -8.1521304231      -10.6519266070
 C        -3.2237433812      -10.3166805090      -10.2324329311
 C        -4.4877386723       -9.6491497135       -9.7884044107
 C        -4.4711652627       -9.4198153369       -8.2223493766
 O        -3.9696213889       -8.3367886370       -7.8311034692
 C        -5.0705657861      -10.4327948974       -7.2483616849
 C        -6.7468375731      -10.3147264698       -7.4845907991
 O        -7.4464873177      -11.2298424177       -7.7191306153
 C        -7.3265955226       -8.8745469837       -7.3107165880
 C        -8.8687002331       -8.9223933552       -7.0633780353
 C        -9.5672726847       -8.8254797940       -8.5601286468
 O        -8.8033943604       -8.9455473382       -9.4884714766
 C       -11.0609160296       -8.5058511172       -8.6936960006
 C       -11.5933715485       -7.1661946979       -7.8586126789
 O       -11.4517531544       -7.1625575982       -6.6429605632
 C       -12.2880196631       -6.0256359872       -8.5951555403
 C       -13.7469532994       -6.1053035221       -9.0446262227
 C       -14.1042250582       -5.1495319342      -10.1966659091
 O       -13.3548755869       -4.2783861221      -10.5675118765
 C       -15.4768368080       -5.4839529415      -10.9254323748
 C       -14.8900277940       -6.3817753639      -12.1458292301
 O       -14.3054717345       -7.3893682916      -11.8210808970
 C       -14.8462084581       -5.8573120781      -13.6224019604
 C       -16.5500925720       -6.2831190538      -10.0430944838
 C       -16.1650679083       -4.2384789349      -11.4143602678
 C       -11.4318256598       -8.4151529328      -10.1995479468
 C       -11.8023083831       -9.7503873504       -8.1073493380
 C        -4.7962429810      -11.8899411307       -7.5661672530
 C        -4.7809415680       -9.9579862718       -5.7509993000
 C         0.1013049112       -8.9228371565      -11.9002374341
 C        -0.4444665732      -11.3111406631      -11.0979215637
 C         4.7033092101       -6.5311465089       -8.5454696049
 C         4.5121539103       -7.8742596360       -6.5671326573
 C        -1.2525361554       -3.9675829547       -4.9898512050
 C        -1.4850506827       -6.3486679205       -5.6958772195
 C        -4.8450734808       -1.2976099530      -10.7634537573
 C        -2.4186765603       -1.4063341139      -11.4256525632
 C        -1.9019514957        3.9288153278       -6.3998524053
 C        -3.7945424950        4.9306978675       -7.9805907971
 C         4.0252026265        6.2569904273       -9.0491696628
 C         3.4893249524        8.3227661796       -7.7021135892
 C         3.6411849430        6.5923168529      -15.8487763176
 C         2.0391102229        8.3920364602      -15.0407309067
 C        -2.1976991100        1.9233734050      -14.3223494635
 C        -1.6469080131        3.1052375296      -16.5743920100
 C        -6.5610014053        7.8317064572      -14.2987205334
 C        -5.0704320077        8.8941267793      -12.6549673422
 H        -7.7696139149        6.1458562383      -12.6240926800
 H        -6.7827710550        4.8175719590      -11.5721339792
 H        -6.7149964523        5.0384895328      -13.4675222844
 H        -3.7988998106        7.7724916569      -15.8882947462
 H        -4.9233656787        6.4212862052      -15.8090989269
 H        -1.9196659651        6.0095967158      -15.6671746467
 H        -2.8826709178        5.4797788837      -16.8170528252
 H         0.9757505579        3.2339044788      -15.4529364290
 H         0.9375512397        2.6874092234      -13.9496920657
 H         2.5259147656        4.3058415593      -13.8425761618
 H         1.1703955494        4.7673912563      -12.8862964930
 H         2.5266072314        8.8667104278      -12.4818343938
 H         4.2020894062        9.0432367181      -13.1438698721
 H         4.4308568470        9.2470321699      -10.7491927138
 H         4.8143838511        7.6322419733      -10.9507760526
 H        -0.1269503887        7.7717677646       -9.0112681575
 H         0.4847929332        8.0463234477       -7.4481011521
 H        -1.4865031370        6.9168847505       -7.0264247226
 H        -0.2444556825        5.6446879411       -6.8013329153
 H        -1.7276459148        1.5064675094       -7.5792212967
 H        -0.3214929425        2.0871831152       -8.4014796358
 H        -0.9946863182        0.0362294777       -9.0886307166
 H        -1.1384795285        0.9624877769      -10.5127363352
 H        -4.7131365897       -3.3638635599       -8.4608104828
 H        -4.6934715318       -1.6522975279       -7.9201868558
 H        -4.2262486161       -3.1361918469       -5.9969523643
 H        -2.7591331010       -2.3158667135       -6.3270464124
 H         1.1201222968       -4.1069157556       -6.0397081336
 H         1.0428725807       -3.1937019160       -7.4404383413
 H         2.9140358145       -4.1686171405       -7.7729099978
 H         2.0793722884       -5.2556281908       -8.7454939164
 H         1.8953995545       -9.2974864219       -6.9260208585
 H         3.0032260773      -10.2061998062       -7.6712190603
 H         1.1063340759      -11.1498105074       -8.5612878634
 H         1.8079935655      -10.3803223153       -9.9143263797
 H        -2.8917621833      -11.1058293782       -9.4396905002
 H        -3.3570271121      -11.0267165082      -11.1273985978
 H        -5.3617228730      -10.1914329249      -10.1676420099
 H        -4.5631002165       -8.6317378229      -10.2701861845
 H        -7.1243141731       -8.3768757273       -8.2706139223
 H        -6.7210355255       -8.2400766773       -6.6530460496
 H        -9.1747867781       -7.9651649600       -6.6441578769
 H        -9.2692742301       -9.7523224146       -6.4754025317
 H       -11.7168212521       -5.6847308764       -9.5135069294
 H       -12.1857450842       -5.1995385112       -7.9067469043
 H       -14.4566367863       -5.7497591835       -8.2125448236
 H       -13.9823051033       -7.0730816922       -9.5071799337
 H       -15.5928034893       -6.4706055443      -14.1644811681
 H       -13.8754950273       -6.1357645925      -14.0021230125
 H       -15.0139023810       -4.8434843479      -13.8281770803
 H       -17.1188561004       -5.6008976682       -9.3572201641
 H       -16.1454794688       -7.1099204790       -9.4441607233
 H       -17.3326873263       -6.5156657071      -10.7790393187
 H       -16.8369260712       -4.3583463206      -12.1872527346
 H       -15.4800052790       -3.4155241333      -11.7968929603
 H       -16.8506257215       -3.9227429399      -10.5812044778
 H       -12.5347409756       -8.7289654331      -10.3421709489
 H       -10.8761308530       -9.0917250092      -10.8204283506
 H       -11.2744496927       -7.3450380003      -10.5745789487
 H       -11.6333009379       -9.7607385430       -7.0093506981
 H       -11.3860929862      -10.6811249935       -8.4432506871
 H       -12.8183192357       -9.7852167697       -8.3556506304
 H        -4.4834548384      -11.9934234933       -8.6436254077
 H        -5.6129625466      -12.5238606342       -7.3035224438
 H        -3.9002360524      -12.3432716083       -7.1035909898
 H        -4.4564722758      -10.8164400018       -5.2433773862
 H        -5.7482947803       -9.6292085162       -5.2805045994
 H        -3.9402895523       -9.2802364729       -5.6342277265
 H         1.1846232763       -8.8821678652      -11.7505733290
 H        -0.3516385891       -7.9283352969      -11.7554429569
 H        -0.1324906659       -9.3743346816      -12.8498381953
 H         0.5725801648      -11.4905441040      -11.1915607415
 H        -0.9228794723      -11.5797533298      -12.0743215981
 H        -0.9051826723      -11.9798673305      -10.2573998690
 H         4.3488667458       -6.2734259910       -9.5017239145
 H         5.6888611650       -6.9973097731       -8.5715597755
 H         5.0415415755       -5.5681023584       -8.2004424999
 H         3.9195066332       -8.4245979118       -5.7948864650
 H         5.1153312998       -7.1994650382       -5.9681741421
 H         5.1714243983       -8.6943464298       -6.9263268839
 H        -0.6585740086       -4.3956600709       -4.2586441159
 H        -2.1545802746       -3.5145024517       -4.5547551208
 H        -0.6306136246       -3.1172213163       -5.2590439851
 H        -0.6789086627       -6.5739406452       -4.9801702287
 H        -1.4884993565       -7.0034549723       -6.5712148418
 H        -2.2904574060       -6.4335024148       -5.0475148569
 H        -5.1058038637       -0.4315925597      -11.3331068113
 H        -5.5269115643       -1.6082835210       -9.9309796944
 H        -4.9412300649       -2.0656142157      -11.5040220720
 H        -1.3267466773       -1.1887329102      -11.2479023408
 H        -2.7357648697       -0.9173640573      -12.3447494885
 H        -2.3026393578       -2.4723292915      -11.6267037693
 H        -0.8203697777        4.0323089834       -6.2533023009
 H        -2.1968458149        2.9270855914       -6.1791983942
 H        -2.5145225997        4.4638626953       -5.7072752334
 H        -4.6568136333        4.3805709154       -7.4665327680
 H        -4.2222650144        5.1537086795       -8.9640646060
 H        -3.6772314620        5.8379276875       -7.4153703023
 H         4.2516360876        5.5894203170       -8.2189296631
 H         4.8559615433        6.9140514635       -9.3007190024
 H         3.5702064630        5.7023062444       -9.8966387508
 H         4.5830112691        8.3404066445       -7.7834200560
 H         3.2471240879        8.0822679560       -6.7363117581
 H         3.2210654558        9.3795887380       -7.6944525390
 H         4.5689130333        7.2268737875      -15.7787140603
 H         3.2483395776        6.9134635369      -16.8071153814
 H         3.7933879411        5.5383278789      -15.9515955158
 H         0.9979757476        8.2233983184      -15.4523869602
 H         2.4824520863        9.0167821623      -15.8189193261
 H         1.9982948702        8.9976088889      -14.1257425590
 H        -2.4395751528        2.1452282611      -13.2952969684
 H        -1.3436288045        1.3973765432      -14.1299841437
 H        -3.0061354890        1.2674876997      -14.6760554365
 H        -0.6865601502        3.5811017913      -16.7530432587
 H        -2.3656431495        3.5420163279      -17.2545230694
 H        -1.5805851374        2.0965019544      -16.9531381516
 H        -7.0082594105        7.0552776433      -14.8570835203
 H        -6.2309448753        8.5726333159      -15.0592998767
 H        -7.2798761020        8.4483372465      -13.7216372429
 H        -4.1554442089        8.9718968998      -12.0723952677
 H        -5.9610772915        9.1398045678      -11.9595642143
 H        -5.1483240742        9.6816944868      -13.3670219243
 Na       -2.7568898955        5.1216289309      -11.4631097554
 Na       -2.3673820828       -7.0030601208       -8.7146284616
