232

 C        -6.8784994765        5.4545178356      -12.5976190778
 C        -5.7035549567        6.3710821609      -12.2966387323
 O        -4.9414138054        6.0688359596      -11.3850059424
 C        -5.2703434350        7.6233139738      -13.2241294653
 C        -3.8977776950        7.1412525691      -13.9188578667
 O        -2.8876086343        7.0426931153      -13.2318604601
 C        -3.9248599387        6.7790809313      -15.4267496010
 C        -3.0395913287        5.5918461109      -15.8266857199
 C        -3.0615072474        4.3842254499      -14.9033171583
 O        -3.8583710330        4.1385757814      -14.0187384497
 C        -1.8600456748        3.3254318422      -15.0718921451
 C        -0.7850147854        3.8033116877      -14.0715572473
 O        -1.2109936513        4.1530226777      -12.9725331175
 C         0.6585598527        3.5376852930      -14.4539396707
 C         1.5502715130        4.7158766444      -13.9325740707
 C         1.3233756054        6.0289933122      -14.7187836923
 O         0.3134633299        6.3946572199      -15.2448267081
 C         2.5471074188        7.0613286200      -14.6127281273
 C         3.4882083201        6.9414902501      -13.3319821147
 O         4.2568801216        6.0985179107      -12.9843531076
 C         3.4281994251        8.3337821245      -12.5974817511
 C         3.9671616146        8.3690525922      -11.2094665389
 C         2.8283223571        7.9803361925      -10.2940775822
 O         1.7030998462        8.3966004471      -10.5894268840
 C         3.0396681383        7.1471418049       -9.0450282554
 C         1.7139041953        6.4796112852       -8.4269173938
 O         1.7986067512        5.3199298197       -8.0967819807
 C         0.4099924301        7.3286147515       -8.1347756297
 C        -0.7265517742        6.4724942979       -7.5190766213
 C        -1.2778905242        5.3609371625       -8.3871327657
 O        -1.0685895471        5.3612055463       -9.6110294157
 C        -2.3203839789        4.3735392010       -7.8939008834
 C        -2.3377828444        3.0560622445       -8.8647284435
 O        -2.9198120222        3.2270092206       -9.9415617047
 C        -1.4517845554        1.8684465232       -8.4967485636
 C        -1.6578745456        0.5989828380       -9.3452662520
 C        -3.1242123729        0.1794825769       -9.5557110693
 O        -4.0699730592        0.7419204448       -9.0468790916
 C        -3.3669715633       -1.2019692000      -10.3227795147
 C        -2.9665534605       -2.0369050204       -9.0437646168
 O        -1.7982623394       -2.3050562218       -8.8466626530
 C        -4.1182899908       -2.3988963050       -8.0474923930
 C        -3.4217310767       -3.0412156484       -6.7567162949
 C        -2.7995671185       -4.3311842129       -7.0815935418
 O        -3.2931821376       -4.9462028169       -7.9944476351
 C        -1.5290771306       -4.8052984298       -6.2667781513
 C        -0.3419543666       -4.8866215739       -7.3044700822
 O        -0.5842310677       -5.4837774652       -8.3064304601
 C         1.0539132566       -4.2022869666       -7.0424451768
 C         2.1991108269       -5.1116321730       -7.6912041974
 C         2.6804802301       -6.3392618722       -6.9108731679
 O         2.1405591717       -6.6780242234       -5.8286653737
 C         3.6960031112       -7.2064016840       -7.6423383329
 C         2.8420976333       -8.2463424553       -8.6685621974
 O         2.9705341600       -8.1145200193       -9.8578908155
 C         2.2773455155       -9.5040363542       -7.9454926516
 C         1.2123733420      -10.3137539575       -8.7868399249
 C         0.1085303950       -9.3698669030       -9.3301406343
 O        -0.2927787657       -8.4184563004       -8.7214844714
 C        -0.6949089687       -9.7594231135      -10.6527681599
 C        -2.1615514048       -9.3191624626      -10.6012388287
 O        -2.3884198478       -8.1288326863      -10.6918314059
 C        -3.3172585052      -10.3099045931      -10.3251291947
 C        -4.5878251789       -9.6230216645       -9.7340565234
 C        -4.4825032120       -9.3067635301       -8.2486040437
 O        -4.0344049007       -8.2386932323       -7.8787572680
 C        -5.1129863020      -10.3138774579       -7.2721461767
 C        -6.7450342154      -10.1678754344       -7.5114325211
 O        -7.2781053854      -11.2144085786       -7.8087195926
 C        -7.3429504962       -8.7908426796       -7.2490772986
 C        -8.8702184225       -8.7014528476       -7.1883534648
 C        -9.5160939729       -8.7459610369       -8.6026723340
 O        -8.8177017234       -8.8738489406       -9.6087567565
 C       -11.0943115242       -8.6504302108       -8.5825475725
 C       -11.5941032025       -7.3349042647       -7.8049235794
 O       -11.4274685333       -7.2289575119       -6.6314078793
 C       -12.1204258190       -6.0816168006       -8.5228064135
 C       -13.5788190666       -6.2517622147       -9.0233513577
 C       -14.0862440127       -5.1582366871      -10.1811387032
 O       -13.4215680317       -4.1972760934      -10.5220423474
 C       -15.4227626810       -5.4581149849      -10.9372061345
 C       -14.8789080115       -6.3943217617      -12.0951588106
 O       -14.3705295563       -7.4838444768      -11.8491841889
 C       -14.9972875344       -5.9830542147      -13.5457322764
 C       -16.3902948072       -6.3674833191      -10.1752830160
 C       -16.1315283468       -4.1541937716      -11.2441661357
 C       -11.5189504020       -8.4071467790      -10.0823930872
 C       -11.7304322773       -9.9368771199       -8.0139639753
 C        -4.6454784690      -11.7464398613       -7.4668085653
 C        -4.7605488319       -9.8934324432       -5.8181482134
 C         0.0252558236       -8.8987568408      -11.7293776475
 C        -0.4927931905      -11.2270457902      -11.1264955728
 C         4.6531245843       -6.5150337694       -8.5536945754
 C         4.4771225095       -7.9710510716       -6.5080521486
 C        -1.3070772623       -3.8256505303       -5.0576104794
 C        -1.5084094976       -6.2539418635       -5.5694222298
 C        -4.8238884735       -1.3331217858      -10.7797353263
 C        -2.3695249225       -1.4441150806      -11.4715468827
 C        -2.0219153542        3.9203658451       -6.5388952594
 C        -3.6792753365        5.0980069213       -8.0632092725
 C         4.1500898932        6.0773441325       -9.0719453935
 C         3.3984311465        8.2701185607       -7.9708173681
 C         3.5266631068        6.4622798915      -15.7546457302
 C         2.2294241952        8.4872441730      -14.9892361533
 C        -2.2949409747        1.9623965010      -14.4108192572
 C        -1.4688280285        3.0177842311      -16.5654610105
 C        -6.4305210440        7.7722421880      -14.1972690870
 C        -4.8271288077        8.9392358283      -12.6112525470
 H        -7.6606595185        6.1015843967      -13.0932453209
 H        -7.0509391000        4.8637527438      -11.6756283183
 H        -6.5030240233        4.8397853038      -13.4389704486
 H        -3.6083550686        7.6942822962      -15.9339881494
 H        -4.9414192275        6.5400940739      -15.8536051686
 H        -2.0344188446        5.8707719089      -16.0865316985
 H        -3.3092948751        5.3363440372      -16.8215870520
 H         0.7379599620        3.4146637918      -15.5403581785
 H         0.9007292935        2.5227712735      -14.1911947213
 H         2.5675759101        4.4800004819      -13.9525056110
 H         1.3348275344        4.9065717475      -12.8370860410
 H         2.3751775750        8.6756397377      -12.5170537363
 H         4.0052493149        9.0148717900      -13.1881153019
 H         4.2484602780        9.3433608980      -10.7670670744
 H         4.9597788450        7.7924063235      -11.1093466141
 H         0.0232440965        7.7731984688       -9.1369759897
 H         0.5351527250        8.1808588640       -7.5218589407
 H        -1.6779986420        7.0885059697       -7.3265555385
 H        -0.4518413977        5.9564294125       -6.5955248399
 H        -1.4968430028        1.6875826420       -7.4429195547
 H        -0.3673130713        2.2448128977       -8.6275034903
 H        -0.9388051964       -0.1903384840       -8.9274296807
 H        -1.3576328959        0.8115138012      -10.3231140644
 H        -4.8702013967       -3.2019065713       -8.5141573398
 H        -4.6934187148       -1.5097628358       -7.8510483312
 H        -4.2384547633       -3.0794223940       -5.9303753540
 H        -2.7699239198       -2.2735720648       -6.3747156226
 H         1.1917842488       -4.0756762422       -5.9295088242
 H         1.1091017182       -3.1451079695       -7.4184706732
 H         3.0268122329       -4.4281789889       -7.9327731622
 H         1.9307361672       -5.4446828092       -8.6891732092
 H         1.8305806025       -9.1224816248       -6.9196300897
 H         3.1024253706      -10.0914342618       -7.5591750206
 H         0.8030911732      -11.0692745270       -8.0162305337
 H         1.4961384611      -10.9660281247       -9.5652345976
 H        -3.0045360184      -11.2466845992       -9.7052722165
 H        -3.5391309072      -10.8072854039      -11.2834067618
 H        -5.4989568833      -10.3363301042       -9.8673370174
 H        -4.8209468614       -8.7054562217      -10.3552391840
 H        -6.7583001828       -8.0039494216       -7.7221858649
 H        -6.9463227400       -8.6378927868       -6.1972813116
 H        -9.1997751899       -7.7799759244       -6.8141378898
 H        -9.3567758940       -9.4379258823       -6.6073995289
 H       -11.4734565340       -5.7613375168       -9.4067615721
 H       -12.0648874923       -5.2213098192       -7.8194832313
 H       -14.2622545392       -5.9251708018       -8.1566555770
 H       -13.8332089088       -7.1588678226       -9.5612527873
 H       -15.4928707779       -6.8278766667      -14.0657057750
 H       -14.0145980313       -5.8572023679      -13.9622549182
 H       -15.5160036001       -5.0398115732      -13.7449457567
 H       -16.8915893609       -5.7708686068       -9.4824396720
 H       -15.9333160068       -7.1571154498       -9.6057245133
 H       -17.2118041591       -6.6711714576      -10.9019034903
 H       -17.0773929841       -4.3571119042      -11.7869479680
 H       -15.6061636968       -3.4452375676      -11.8641019126
 H       -16.5082343800       -3.7198103524      -10.3325953000
 H       -12.5719266509       -8.2211193851      -10.1656936683
 H       -11.4020273610       -9.3263152761      -10.7671326178
 H       -10.9238036812       -7.5923794302      -10.4600093564
 H       -11.3475620928      -10.1145544189       -7.0255214903
 H       -11.3459681471      -10.8573404130       -8.5962155824
 H       -12.8465772857       -9.9849413794       -8.0751843070
 H        -4.3754234219      -11.9181124562       -8.4956464721
 H        -5.2801144123      -12.5747262016       -7.0870560835
 H        -3.6240125696      -11.8959054156       -7.0789693393
 H        -4.0872954658      -10.7164803012       -5.5423940993
 H        -5.6394843024       -9.9164320265       -5.1805626941
 H        -4.1141121017       -9.0095309251       -5.6518638052
 H         1.1102465107       -8.7059478032      -11.4721632223
 H        -0.5335077314       -7.9802911845      -11.7416071477
 H        -0.0530077276       -9.4666264863      -12.6599700890
 H         0.5301471383      -11.4114356753      -11.4001361681
 H        -0.9936011320      -11.2033088880      -12.1035901193
 H        -0.9062270318      -12.0371198529      -10.4843160671
 H         4.2169694578       -5.8875622290       -9.3407184628
 H         5.4331427998       -7.1413696414       -8.8927330301
 H         5.3228913763       -5.7796289992       -8.0565678949
 H         3.8322083489       -8.4573871333       -5.7621319960
 H         5.1114615782       -7.3060278789       -5.8400097487
 H         5.1627810088       -8.8252281948       -6.7896950872
 H        -0.4912960196       -4.1785647600       -4.3911109901
 H        -2.1912928948       -3.6469841807       -4.4845128836
 H        -0.9540928579       -2.8202817295       -5.3527071592
 H        -0.5750337473       -6.7426501650       -5.4187367097
 H        -2.1758079476       -6.7916565351       -6.2637395803
 H        -1.9015736594       -6.1342688288       -4.5551005310
 H        -4.8780560432       -0.6647723511      -11.6692628304
 H        -5.5649286664       -1.1694585223       -9.9151168496
 H        -5.1020652712       -2.3131892499      -11.1625632218
 H        -1.2809832261       -1.4126467663      -11.1768867511
 H        -2.5503574695       -0.7097442574      -12.2483003732
 H        -2.3903474884       -2.4440177749      -11.9571295909
 H        -1.0198899695        3.7004372552       -6.3264364813
 H        -2.6071017718        3.0662211548       -6.4412797341
 H        -2.5085858832        4.5662312215       -5.7936891045
 H        -4.4609750302        4.4876031921       -7.6262777160
 H        -4.0119542169        5.1973590767       -9.0388674051
 H        -3.7404379603        6.0305265690       -7.4902426843
 H         4.4524960334        5.9830280330       -7.9680786089
 H         4.9395031053        6.6169810682       -9.5530842655
 H         3.7861346156        5.1227473845       -9.4225107984
 H         4.4155778396        8.5440834837       -7.9387690988
 H         3.1093619639        7.9582945585       -6.9639660138
 H         2.9004730010        9.2059818463       -7.9854326635
 H         4.4577148947        6.9167429902      -15.8867109119
 H         2.9895782590        6.5709763175      -16.7370377250
 H         3.5312628499        5.3884141405      -15.6297768215
 H         1.5777317727        8.4187523540      -15.9016776284
 H         3.0995860841        9.1475282777      -15.3456535242
 H         1.7218993160        9.0524127859      -14.1530767702
 H        -2.5729524355        1.9418250247      -13.3866275586
 H        -1.4035070623        1.2973557029      -14.2911254022
 H        -2.9696065229        1.4300216182      -15.0048412461
 H        -0.7200149418        3.6362790248      -17.0404717334
 H        -2.3821358120        3.1229464303      -17.1335204958
 H        -1.1802935695        1.9122110536      -16.8083071442
 H        -6.7386789722        6.8370452065      -14.6645081320
 H        -6.3282690675        8.5096919473      -14.9879693922
 H        -7.2428559788        8.1937884923      -13.6072402894
 H        -4.0359178852        8.9472704766      -11.8454071044
 H        -5.6544697376        9.5240935900      -12.2300500547
 H        -4.5674873116        9.5427306017      -13.5245050055
 Na       -2.7537468100        5.0189166417      -11.4618240214
 Na       -2.4407720577       -7.0129783633       -8.7558221107
