232

 C        -6.8365479379        5.5075386629      -12.7000428918
 C        -5.5963801339        6.3077201633      -12.3308294189
 O        -4.8265821203        5.8647672267      -11.4265881203
 C        -5.2098159420        7.5691832881      -13.2462400529
 C        -3.8830989760        6.9419649935      -13.9374600043
 O        -2.9071694539        6.8168802279      -13.2392593945
 C        -3.8667753948        6.6932400263      -15.4109597020
 C        -3.0911186968        5.4539483152      -15.8844163253
 C        -3.0425957312        4.3075724952      -14.9233115507
 O        -3.8189506921        4.2271175033      -13.9951448613
 C        -1.9040705185        3.2459599416      -15.0276222739
 C        -0.8069727201        3.7729042779      -13.9938497054
 O        -1.1019126844        4.2262632505      -12.8962932620
 C         0.6384810316        3.6762003057      -14.3821341885
 C         1.6030629656        4.8577225320      -13.8954715440
 C         1.3300470237        6.1968287906      -14.4967401843
 O         0.2785507721        6.4354393768      -15.0800909462
 C         2.5581815909        7.0300739167      -14.6893102901
 C         3.4559268268        7.0488968746      -13.3830183043
 O         4.0967621820        6.0662856582      -13.0295502019
 C         3.5201192144        8.4103905425      -12.6333543090
 C         4.0010943780        8.3434515990      -11.2274066693
 C         2.8238358315        7.8345869299      -10.3388431018
 O         1.6931949256        8.2602518495      -10.5979990009
 C         3.0868011907        7.0248547350       -9.0045048295
 C         1.7888848772        6.4108307268       -8.4318122455
 O         1.7932149211        5.2681181520       -7.9480510487
 C         0.5764908204        7.2696207860       -8.2401093249
 C        -0.6531438973        6.6004576047       -7.5696985988
 C        -1.2065457012        5.4205176094       -8.4866679333
 O        -0.9990973394        5.4839618875       -9.6711407687
 C        -2.3553372788        4.3383049990       -7.8310552131
 C        -2.3472498913        3.1556371236       -8.9184116817
 O        -3.0305921845        3.0905918500       -9.9099930202
 C        -1.5635818601        1.9467178422       -8.4817105508
 C        -1.7879666065        0.6336369644       -9.3143894407
 C        -3.1955488170        0.2681192318       -9.5890461294
 O        -4.2373687159        0.7431360512       -9.1741059510
 C        -3.3088261988       -1.2153926050      -10.2708746210
 C        -2.9537720041       -2.1133988210       -9.0556949443
 O        -1.7869900920       -2.3717784793       -8.7875681903
 C        -4.0758460468       -2.3249097402       -8.0492758706
 C        -3.5178827509       -2.8904272518       -6.7254860990
 C        -2.8683504898       -4.2897710443       -7.0421632010
 O        -3.2744756238       -4.9637645907       -8.0034516569
 C        -1.6181301667       -4.7024758749       -6.2562245424
 C        -0.3404725886       -4.7716999162       -7.3386561853
 O        -0.5371813044       -5.2265607731       -8.4551576225
 C         1.0635137784       -4.3720987894       -6.9426944432
 C         2.1463612681       -5.1024656202       -7.7323456222
 C         2.5138834024       -6.4029006895       -6.9980715910
 O         2.0465972806       -6.7101976341       -5.8965014315
 C         3.7102275587       -7.3341364580       -7.7253584905
 C         3.0495552128       -8.3436302249       -8.6480093542
 O         2.9434338527       -8.0549990654       -9.8242482891
 C         2.1772274781       -9.4497027963       -7.9720339922
 C         1.0896992417      -10.2776655134       -8.7071004710
 C        -0.0350727508       -9.4296463817       -9.2644103932
 O        -0.2768087246       -8.3710744189       -8.7050433465
 C        -0.7241345707       -9.7190031054      -10.6821571374
 C        -2.1782939749       -9.2914676106      -10.5702114095
 O        -2.4941189402       -8.0871456351      -10.7666507562
 C        -3.3295408766      -10.3062287551      -10.4608995372
 C        -4.6351026752       -9.6672670911       -9.7750863111
 C        -4.5046738213       -9.2206713989       -8.2947063294
 O        -4.0894129805       -8.1759812169       -7.8366530335
 C        -5.0298501840      -10.2403128861       -7.2507983027
 C        -6.6825297860      -10.1508758025       -7.3847390573
 O        -7.2508675236      -11.0690068738       -7.9262870742
 C        -7.3077323485       -8.7938388371       -7.0732623835
 C        -8.8085046739       -8.5777672796       -7.2261966665
 C        -9.5002653941       -8.6498753821       -8.5986391823
 O        -8.9795174528       -8.7604423450       -9.6779454491
 C       -11.1216267888       -8.6359856007       -8.5972153728
 C       -11.5440358763       -7.4355290522       -7.7657380863
 O       -11.3517342640       -7.4545453284       -6.5584381343
 C       -12.0375282725       -6.0872608748       -8.5863208841
 C       -13.5198809808       -6.2337101018       -9.0366891944
 C       -14.0057835659       -5.1865808043      -10.0687704851
 O       -13.4144890084       -4.1907103460      -10.3323092977
 C       -15.3821535407       -5.5258515877      -10.8613766280
 C       -14.8980680583       -6.4328384322      -12.1018984255
 O       -14.4430083912       -7.5191225816      -11.7959194281
 C       -15.1668830290       -6.0231494996      -13.5707088482
 C       -16.3047658187       -6.5387352029      -10.1503770262
 C       -15.9665905137       -4.1546018642      -11.2301986155
 C       -11.5515579215       -8.6227668674      -10.1743803989
 C       -11.6231196033       -9.9320581458       -7.9848227324
 C        -4.5762624979      -11.6087889343       -7.4913611459
 C        -4.7741533566       -9.7710525118       -5.7531035629
 C         0.0629575258       -8.7423421026      -11.6558652244
 C        -0.5761562305      -11.2788486632      -11.0811615773
 C         4.6575586673       -6.4230087567       -8.5106301522
 C         4.3878551635       -8.1393042919       -6.5698634402
 C        -1.2011913576       -3.6451450269       -5.1138563881
 C        -1.7251184032       -6.1030418747       -5.5908620195
 C        -4.7429273063       -1.3573752038      -10.7531713922
 C        -2.3552553113       -1.4697684623      -11.4387527598
 C        -2.2130529653        3.9083431586       -6.3201847080
 C        -3.6149205571        5.1915038742       -8.0459586056
 C         4.2309336360        5.9411185580       -9.0475314700
 C         3.3682072139        8.2453539517       -8.1255110831
 C         3.4910537737        6.2813308466      -15.7886006131
 C         2.2877921172        8.4263934388      -15.1933778090
 C        -2.5293292872        1.9276571150      -14.5958301326
 C        -1.3308178222        3.0537842783      -16.4570348920
 C        -6.3064360751        7.8538879950      -14.2502534283
 C        -4.7367092062        8.8681247957      -12.4426569497
 H        -7.5454434910        6.1156066489      -13.1859595336
 H        -7.0739033766        5.0121731745      -11.7877594010
 H        -6.5042388308        4.7630888235      -13.4257423142
 H        -3.3898116686        7.5655918186      -15.9039441210
 H        -4.8828867389        6.6449784004      -15.8649702001
 H        -2.0411219991        5.7722201641      -16.1319687367
 H        -3.3597705050        5.2743585986      -16.8922482986
 H         0.7502685323        3.4316970967      -15.4688080059
 H         0.9158288033        2.6585701136      -14.0114601066
 H         2.6280616870        4.5934684309      -14.1419079232
 H         1.6158699203        4.9157885831      -12.7942278544
 H         2.4798922453        8.7668694773      -12.6425318773
 H         4.1577036198        9.1007582152      -13.1822551703
 H         4.3283538095        9.2583351225      -10.6650705686
 H         4.9026266709        7.7112549229      -11.1957642202
 H         0.2874123732        7.7078062134       -9.1883233047
 H         0.8180869453        8.1668944339       -7.6013935397
 H        -1.5171539365        7.2659012461       -7.5053741320
 H        -0.3923387906        6.1909997888       -6.5502282807
 H        -1.8025899259        1.7386454188       -7.4306451322
 H        -0.5068839720        2.2208661226       -8.4489875786
 H        -1.3198000499       -0.2021909599       -8.7111233271
 H        -1.2868190399        0.6142298254      -10.3528505002
 H        -4.8399920595       -2.9474556010       -8.3359692818
 H        -4.5263843139       -1.2598189112       -7.9165165182
 H        -4.3707125692       -2.8435669572       -6.0899236680
 H        -2.8279916724       -2.1254866880       -6.2919767571
 H         1.2143782826       -4.2134380302       -5.8563337688
 H         0.9664196395       -3.3063572699       -7.3417839994
 H         2.9879764390       -4.4640328130       -7.8330910078
 H         1.8077964372       -5.2409700508       -8.7879627124
 H         1.8263893606       -9.0090283857       -6.9655224960
 H         2.9025473123      -10.2427552259       -7.5394651263
 H         0.8635701978      -11.0557614999       -7.9313150005
 H         1.4099137492      -10.9118421010       -9.5261863175
 H        -3.0701993763      -11.2219472899      -10.0302421761
 H        -3.4975823319      -10.5942061129      -11.4802198826
 H        -5.4674381798      -10.4120778171       -9.7794272824
 H        -4.9424172398       -8.8535193284      -10.4837016622
 H        -6.6551376639       -8.0976978865       -7.6410817115
 H        -6.9894576025       -8.4679190080       -6.0670820547
 H        -9.1555701011       -7.6399575918       -6.8109950529
 H        -9.4388253499       -9.2736646555       -6.6768184091
 H       -11.4222705286       -6.0255619629       -9.4880936147
 H       -11.9084206204       -5.0524675888       -8.1270204110
 H       -14.1568247688       -6.0571981469       -8.2195918991
 H       -13.7836704339       -7.0999896399       -9.6971081537
 H       -15.4164001034       -6.8288523966      -14.2438966348
 H       -14.3459868825       -5.3913599893      -13.9745853631
 H       -15.9885098761       -5.2542369668      -13.4980434831
 H       -16.5853706370       -6.0868075092       -9.2157964714
 H       -15.8294577695       -7.4829911554       -9.8813101954
 H       -17.1844301474       -6.7035803867      -10.7433540752
 H       -17.0402564473       -4.2680185592      -11.5878330453
 H       -15.4517690803       -3.7255291253      -12.0449787628
 H       -15.9872823308       -3.4169748424      -10.4599915139
 H       -12.5545263222       -8.4373160128      -10.4130784849
 H       -11.4538804303       -9.6581648529      -10.5141279203
 H       -10.8511738766       -8.0519984372      -10.7196096089
 H       -11.0873920430      -10.1249739659       -7.0433218749
 H       -11.3661377872      -10.8229918138       -8.5987401318
 H       -12.7672023650       -9.9766094395       -7.8554188421
 H        -4.8025108380      -12.0428923509       -8.4334793472
 H        -5.0207722663      -12.2690584962       -6.7005406612
 H        -3.5062843719      -11.7179883800       -7.4720049838
 H        -3.7049406311      -10.0598357454       -5.5028499791
 H        -5.5205584986      -10.1982286100       -5.1121724753
 H        -4.7908964927       -8.6716597698       -5.6439067319
 H         1.1236676310       -8.7150439972      -11.3635610181
 H        -0.4165899094       -7.7643391358      -11.5246440783
 H        -0.0576885090       -9.1674589145      -12.6812011681
 H         0.4592900438      -11.6534127920      -11.4014589090
 H        -1.1592330609      -11.4037601361      -11.9844207965
 H        -0.9110772259      -11.8334077135      -10.2819639384
 H         4.1380802919       -5.5715452883       -8.9995441649
 H         5.2707680146       -6.9299103158       -9.2385900434
 H         5.4783205539       -5.9234100002       -8.0006329506
 H         3.7865765417       -8.6447289367       -5.7960365427
 H         5.0446240769       -7.4714036106       -5.9794623636
 H         5.0740761619       -8.9156349659       -6.8881853576
 H        -0.2066943389       -3.7837536392       -4.5732422141
 H        -1.9528687930       -3.6757397917       -4.3293731585
 H        -1.2331450742       -2.5931684977       -5.4270180431
 H        -0.9138898891       -6.7585705892       -5.8888588181
 H        -2.6318904268       -6.4947662661       -6.0285247200
 H        -1.6663850896       -6.1001557972       -4.4488685235
 H        -4.7413202540       -1.1019060169      -11.8516030457
 H        -5.4055837863       -0.8159871419      -10.1305158959
 H        -5.1524958772       -2.4241484180      -10.6519372328
 H        -1.3874653675       -1.8098170721      -11.1953724280
 H        -2.2798732483       -0.5586291796      -12.0720937734
 H        -2.7243720835       -2.2475290295      -12.1385274811
 H        -1.4108071051        3.2071380952       -6.1333151957
 H        -3.1412550568        3.4967920161       -5.8751625007
 H        -2.0328939212        4.8097856702       -5.7723323782
 H        -4.4502354241        4.6591065966       -7.7645533118
 H        -3.8126620824        5.3304354938       -9.0946151980
 H        -3.7001792503        6.0658364452       -7.4165131025
 H         4.5120457312        5.8961471760       -8.0084285268
 H         5.0693648800        6.3001686384       -9.6379939756
 H         3.7415348462        5.0084581227       -9.2580301462
 H         4.2254564927        8.8192423557       -8.3994932623
 H         3.4311365999        8.0784314042       -7.0048482708
 H         2.6196726775        9.0130636776       -8.1077851630
 H         4.3335745772        6.8575294858      -16.0902214309
 H         2.8783326883        6.1446674747      -16.6711861801
 H         3.7637113007        5.2514021843      -15.4984089279
 H         2.3575130569        8.4656030414      -16.2813421088
 H         2.9266300175        9.2598885645      -14.8265527667
 H         1.2762951313        8.7166689364      -14.8567455736
 H        -2.8981250292        1.8835605888      -13.5792696839
 H        -1.7216621116        1.1277979007      -14.4718358053
 H        -3.1730691384        1.5060862246      -15.3450338951
 H        -1.0203017190        3.9953865547      -16.9795086410
 H        -2.0704757299        2.5176800978      -17.1037578717
 H        -0.4668012136        2.3927350867      -16.4776413539
 H        -6.5704894785        6.9961438859      -14.9315423796
 H        -6.1163140171        8.7321423763      -14.8248335671
 H        -7.2072959999        8.1287730621      -13.7385940264
 H        -4.2362108908        8.6009865108      -11.4918215822
 H        -5.5274322323        9.5157826011      -12.1936871082
 H        -4.0846546486        9.4957288246      -13.1056377726
 Na       -2.7674116114        4.9699204572      -11.5186750104
 Na       -2.3703687615       -6.9457456066       -8.8071099938
