232

 C        -7.0581201780        5.7139880832      -13.0167926617
 C        -5.5542629873        5.9508436301      -12.4309540214
 O        -5.1147358484        5.2881401537      -11.4722506301
 C        -4.8448040952        7.2415555926      -12.9996736230
 C        -3.6454522339        6.7150936962      -13.8860367166
 O        -2.5865714009        6.6933765856      -13.3551726295
 C        -3.7640186727        6.5507161158      -15.3604454248
 C        -2.7124585557        5.5152704870      -15.8534440372
 C        -2.9275901514        4.1911969653      -15.0360078541
 O        -3.8806183230        4.1995936868      -14.2708214044
 C        -1.7645028283        3.1341919591      -14.9782561513
 C        -0.6353123027        3.5521408850      -13.9304801642
 O        -0.9773235254        3.6776517516      -12.7748116625
 C         0.7765890660        3.7508924301      -14.4049540649
 C         1.5151688881        4.9580277143      -13.6925509446
 C         1.3217921911        6.2513710167      -14.3821275699
 O         0.2177719699        6.7499812518      -14.5142661927
 C         2.6232031267        6.8960744942      -14.8737004923
 C         3.5058288847        7.0539351790      -13.5161191258
 O         4.1461181419        6.0631028056      -13.0828549340
 C         3.5251869872        8.3581956258      -12.7726314171
 C         4.1414279331        8.2354978911      -11.3839845907
 C         3.0674149147        7.4764425924      -10.5277331239
 O         1.9808697801        7.2330342146      -10.9879140885
 C         3.3040561822        7.0128454863       -9.0674298907
 C         2.0028559788        6.4105490100       -8.3862644271
 O         2.0275661667        5.2813519816       -7.9216437201
 C         0.6672802974        7.1591549870       -8.3528706987
 C        -0.3713264380        6.2767089578       -7.6603864644
 C        -1.4100145966        5.5925259604       -8.6375638972
 O        -1.3838069280        5.8135614605       -9.8063013340
 C        -2.6023522284        4.7458437474       -8.0336422973
 C        -2.6059044470        3.4654438146       -8.8891119742
 O        -2.9935506950        3.5091943448      -10.0085056823
 C        -2.2205467603        2.0425121543       -8.2232320970
 C        -2.0554726985        0.9716192186       -9.3430862423
 C        -3.3770270916        0.3195465194       -9.6699413266
 O        -4.4524464550        0.8270884129       -9.5007945758
 C        -3.2653017836       -1.1909890473      -10.2670797533
 C        -3.1851465593       -1.9580684198       -8.9641071927
 O        -2.1636474886       -2.5678504328       -8.6766388754
 C        -4.3728170716       -2.1812924641       -8.0088951053
 C        -3.8080570716       -2.8053426241       -6.7552479470
 C        -2.9700248285       -4.0651225847       -7.1201456642
 O        -3.4948479462       -4.8795927707       -7.8819732977
 C        -1.5595309381       -4.4338828234       -6.2661266803
 C        -0.3420455270       -4.6329688959       -7.3128624993
 O        -0.5281586908       -4.9746472110       -8.4899146881
 C         1.1322347337       -4.3320835907       -6.7547957227
 C         2.2358157706       -5.0817055973       -7.6194463895
 C         2.4566575109       -6.5587811602       -7.0394468027
 O         1.7404769168       -7.1160425093       -6.2592461435
 C         3.5963843838       -7.4807060766       -7.6574761371
 C         2.7851273831       -8.3995599067       -8.5624046724
 O         2.6576137341       -8.1951211177       -9.7423639051
 C         1.9186093645       -9.4872891824       -7.9510317564
 C         0.9296907593      -10.1552964443       -8.8192876782
 C        -0.2658217247       -9.2540016790       -9.2516373728
 O        -0.7370968760       -8.4746750228       -8.4410200369
 C        -0.8908929193       -9.4232304916      -10.6823327874
 C        -2.3967881711       -8.9701774307      -10.5722435777
 O        -2.6213047967       -7.7647511677      -10.8084824617
 C        -3.4097210651      -10.0631185097      -10.4177935098
 C        -4.7384647437       -9.4510823477       -9.8083293877
 C        -4.3437835176       -9.1302633801       -8.3706201045
 O        -3.6252392885       -8.1950497290       -8.1580231910
 C        -4.9983132446       -9.9446913458       -7.2265474132
 C        -6.5836846962       -9.7149606496       -7.4831878451
 O        -7.2172045031      -10.5866652424       -8.0012988412
 C        -7.3183724243       -8.3706357286       -7.1048543962
 C        -8.8273486309       -8.7397957588       -7.0681802977
 C        -9.4192984259       -8.6346289473       -8.4934991208
 O        -8.7321052066       -8.3435761629       -9.4130778469
 C       -10.9327376331       -9.0267404102       -8.6374796112
 C       -11.5172637747       -7.7132259991       -8.0073432169
 O       -11.5971122083       -7.6160577438       -6.7812979547
 C       -11.8738635703       -6.5431479643       -8.9525985435
 C       -13.3436924698       -6.6653760218       -9.1515671774
 C       -13.9378291677       -5.4374450023       -9.8581343573
 O       -13.3375246727       -4.3922151220       -9.8700758652
 C       -15.3019441677       -5.5947770585      -10.6067568160
 C       -14.9816242244       -6.5015512329      -11.9029950103
 O       -14.2179208049       -7.4172430025      -11.6404417212
 C       -15.5425316810       -6.2981916553      -13.2681229058
 C       -16.4084875720       -6.3487093910       -9.7677706770
 C       -15.7682705206       -4.1397716535      -11.0203630842
 C       -11.1996933980       -9.1848689387      -10.1264820044
 C       -11.1438697236      -10.3419307577       -7.8105400287
 C        -4.8042504353      -11.4332104049       -7.4493927834
 C        -4.5686323336       -9.3091441067       -5.7997792957
 C        -0.1627802733       -8.5751792312      -11.7865437786
 C        -0.8432805366      -10.9466428917      -10.9905215079
 C         4.5815332703       -6.7414214375       -8.6177469943
 C         4.3261931979       -8.1328596983       -6.5423648585
 C        -1.3633263742       -3.3451954261       -5.3102596185
 C        -1.6633824034       -5.7910664808       -5.5453281402
 C        -4.6103452907       -1.3240942197      -11.0684363754
 C        -2.0440491581       -1.5165757199      -11.1577276033
 C        -2.5581080889        4.3796693165       -6.4548513689
 C        -3.9655040109        5.4668593168       -8.1955323801
 C         4.3822098209        5.8230662773       -9.2642212963
 C         3.7292194885        8.0356555725       -8.0616853228
 C         3.4617981490        5.9081118257      -15.7242126508
 C         2.2058105366        8.1543153513      -15.7099856700
 C        -2.2465379621        1.9154654919      -14.1766867117
 C        -1.3217233240        2.8060541704      -16.3848492270
 C        -5.8022958385        8.1299249980      -13.8174790167
 C        -4.2113312097        8.1389243049      -11.9043216518
 H        -7.6551001077        6.4913625107      -12.5088986741
 H        -7.3885373313        4.6510096249      -12.7936586900
 H        -7.0681579588        5.9402511353      -14.1347062629
 H        -3.6413247482        7.5556679164      -15.8219219043
 H        -4.7511084682        6.1885478646      -15.6874081579
 H        -1.7228231930        5.9347196762      -15.5128159380
 H        -2.5841727035        5.4944536143      -16.8996067368
 H         0.8357941192        3.6573836202      -15.5092035805
 H         1.2665205713        2.8614210201      -13.9975829536
 H         2.5651803045        4.6144220033      -13.6771555569
 H         1.1792429359        5.0325539894      -12.6700530495
 H         2.5273242718        8.7713849752      -12.6297255606
 H         4.0874217834        9.1559290784      -13.2624961716
 H         4.4518563049        9.2935419400      -11.0336603952
 H         5.0283980757        7.5810321097      -11.3175858539
 H         0.3605133125        7.5235784851       -9.3185159814
 H         0.7687692908        8.1499940566       -7.7730519441
 H        -1.0382452350        6.7804953477       -6.9544098351
 H         0.1994992754        5.4584466144       -7.1131798958
 H        -2.9919756230        1.8112588986       -7.4607310756
 H        -1.2671416832        2.1998479386       -7.7293106935
 H        -1.2906070295        0.2327062149       -9.1714225470
 H        -1.6872728062        1.6434597025      -10.2127047931
 H        -5.0489691602       -2.8036729601       -8.4614626583
 H        -4.8941241211       -1.1424999865       -7.7853752546
 H        -4.5760720801       -3.2520604325       -6.1725948550
 H        -3.2467451655       -1.9134318103       -6.2841024547
 H         1.2354199416       -4.5564499077       -5.6718022481
 H         1.1663324575       -3.1938836595       -6.8307434206
 H         3.0964311649       -4.4732459034       -7.6935712842
 H         1.8681802078       -5.2911579542       -8.6683070846
 H         1.4873646421       -9.0858511972       -6.9882514032
 H         2.7794659800      -10.2679273077       -7.6291499747
 H         0.3876497405      -10.9427846431       -8.2500754950
 H         1.4053769896      -10.7926442197       -9.5910605610
 H        -3.0698718197      -10.8534699462       -9.7701421074
 H        -3.4767561185      -10.6339505166      -11.4094636266
 H        -5.5568284329      -10.1979052684      -10.0072002649
 H        -4.9522626959       -8.5029259805      -10.4412361639
 H        -7.0457107951       -7.6910656641       -7.9524657469
 H        -6.9359094298       -7.8141772268       -6.2256136073
 H        -9.4501924316       -8.2445194175       -6.3985367379
 H        -9.0704245433       -9.7199654380       -6.7799286869
 H       -11.3272257765       -6.4333939764       -9.9021794341
 H       -11.5254395519       -5.6091343122       -8.3811290565
 H       -13.9352296751       -6.6012523937       -8.2525968058
 H       -13.6352718600       -7.6345289287       -9.7387432883
 H       -14.9529754664       -6.8368178940      -13.9585534237
 H       -15.6190603736       -5.2435874699      -13.5427683208
 H       -16.6017397075       -6.5346226887      -13.2410938436
 H       -16.5884376597       -5.6634090927       -8.9201513755
 H       -15.9645665462       -7.2569730797       -9.3763217730
 H       -17.2384341398       -6.7543269671      -10.2436305366
 H       -16.4601201357       -4.1807536250      -11.8425664046
 H       -14.9097439364       -3.5840395065      -11.3047917697
 H       -16.0918073400       -3.4603238955      -10.2773134645
 H       -12.1267553543       -9.8263627647      -10.2230620640
 H       -10.4408697741       -9.7278665590      -10.6114197175
 H       -11.2413846625       -8.2121962145      -10.6828421216
 H       -11.3245893480      -10.1131418526       -6.7085397373
 H       -10.3218888794      -11.0154680586       -7.9586520325
 H       -12.1169187605      -10.8100557528       -8.0825567908
 H        -5.5859886850      -12.0920944558       -7.0294005852
 H        -3.9146658936      -11.7785516418       -6.8819343516
 H        -4.6019467200      -11.7386026680       -8.4813948962
 H        -3.5580751669       -8.8441032886       -5.9760838380
 H        -4.5679115897       -9.9226126549       -4.9010348911
 H        -5.2989018613       -8.5453538804       -5.5941540928
 H         0.8283570883       -8.9832644117      -11.7334752333
 H        -0.2231431781       -7.5063874857      -11.4856209866
 H        -0.6439881697       -8.7432154140      -12.7640328077
 H         0.2239219360      -11.2831635457      -11.1256131101
 H        -1.3040714115      -11.1169921304      -11.9483484345
 H        -1.1653675417      -11.4532042176      -10.1386868200
 H         4.3469939969       -6.8230683935       -9.7045235586
 H         5.6162640689       -7.1245857598       -8.6734231505
 H         4.6514400642       -5.6689686909       -8.4987291814
 H         3.6645840360       -8.5184218372       -5.6953673446
 H         5.0494263198       -7.4251308529       -6.0814482819
 H         4.9558194918       -8.9957045546       -6.8454047104
 H        -0.4265634444       -3.5870745197       -4.7937471778
 H        -2.0658012446       -3.2500194239       -4.4957668719
 H        -1.2863555877       -2.4388697185       -5.8781568433
 H        -2.3766425497       -6.5151620414       -5.9368709366
 H        -1.6872845043       -5.6057154057       -4.4842235568
 H        -0.6297522148       -6.2177297226       -5.6187561649
 H        -4.7621149274       -0.3656240739      -11.6389690028
 H        -5.3983849184       -1.3146102842      -10.3598101164
 H        -4.6342238693       -2.3331251147      -11.6467070360
 H        -1.1507249127       -1.1895349363      -10.6731874617
 H        -2.0509728498       -0.9027353887      -12.1222588293
 H        -2.0424292293       -2.5874853188      -11.4906283262
 H        -1.6929939050        4.7016659865       -5.9128953219
 H        -2.6717214631        3.3270062601       -6.2299636681
 H        -3.2597612516        4.9409188682       -5.9630020929
 H        -4.7072950459        4.9277931929       -7.6910664458
 H        -4.3342868055        5.4794642681       -9.2396511915
 H        -4.0391066014        6.4296512909       -7.6938187266
 H         4.1277791169        5.0362614676       -8.5816661702
 H         5.4259790297        6.2495066630       -9.1477222320
 H         4.2455755336        5.5264582416      -10.3380715396
 H         4.7170816815        8.4693207564       -8.0944180428
 H         3.7308278382        7.6501137663       -7.0490811314
 H         3.1432611683        8.9090858090       -8.0361338568
 H         4.4083399226        6.4173512735      -15.9770014838
 H         2.9984221890        5.5248714474      -16.5988194993
 H         3.8972303812        5.1166071697      -15.0915802897
 H         3.0733906160        8.8824683624      -15.7077771056
 H         1.3319904623        8.6841915744      -15.2339480137
 H         2.0518374768        8.0869192498      -16.8428931319
 H        -2.5170500900        2.2692131254      -13.2021079553
 H        -1.5161901460        1.1334288562      -14.1348654299
 H        -3.1064309818        1.3553665110      -14.5038178623
 H        -0.2525215366        3.0551691825      -16.5944802534
 H        -1.8107624082        3.4841191615      -17.1370005974
 H        -1.4574762414        1.8157739627      -16.6697849173
 H        -6.4100936164        7.5807297153      -14.5640379072
 H        -5.2668238405        8.8923142405      -14.3497007773
 H        -6.5635096481        8.6070236411      -13.2247124059
 H        -3.1502171124        7.7763199641      -11.8536595622
 H        -4.5970150750        7.9978827626      -10.8946694603
 H        -4.1517422551        9.1719522614      -12.2933574907
 Na       -2.7977941030        5.0553060895      -11.7294262146
 Na       -2.2593856387       -6.4715837866       -8.9888276248
