232

 C        -7.0012230937        5.7635353927      -13.0395240187
 C        -5.6236272881        5.9473637310      -12.5647893964
 O        -4.9997734673        5.1312451696      -11.9246741625
 C        -4.7710305043        7.3763909790      -12.8546889684
 C        -3.4712889775        6.9444470431      -13.8059259105
 O        -2.3895460732        6.5826166855      -13.2930196965
 C        -3.6351530794        6.5520654089      -15.3065883723
 C        -2.6391917038        5.4543220966      -15.6878347545
 C        -2.8690362644        4.0653524738      -14.9650745007
 O        -3.8043771632        3.9311125286      -14.2266353704
 C        -1.7937821269        2.8518364594      -14.8886467924
 C        -0.6945343493        3.4514387417      -13.9411456257
 O        -0.9534938806        3.8609660376      -12.8290553902
 C         0.7874499338        3.7387345552      -14.3788432652
 C         1.4838521139        4.8039011375      -13.5131818509
 C         1.4317836538        6.1976158922      -14.2128256944
 O         0.3534994467        6.6286872086      -14.5534131503
 C         2.7066335671        6.8403011206      -14.7634186149
 C         3.7092687823        7.0292382182      -13.5267779602
 O         4.5115865796        6.2424883792      -13.1710670455
 C         3.5667408028        8.4593769952      -12.8287773830
 C         3.7980130741        8.4205017181      -11.2974103252
 C         2.9674759405        7.3127154714      -10.6232528523
 O         2.0526863437        6.7310574011      -11.2319838980
 C         3.4054078633        6.8922971520       -9.2219116192
 C         2.1753240156        6.1061380852       -8.5163858953
 O         2.3048102248        5.0502248542       -7.8955361315
 C         0.8119645945        6.8995279094       -8.5509870584
 C        -0.4084461097        6.3699526163       -7.7396769688
 C        -1.5677534342        5.7991635837       -8.5910545680
 O        -1.7125124996        6.1603889260       -9.7449260424
 C        -2.7750652743        4.9085412353       -8.0634715365
 C        -2.8113791755        3.4835726229       -8.9869737048
 O        -3.0135835018        3.5584144053      -10.1755291194
 C        -2.3396145597        2.2144638146       -8.2032235246
 C        -2.1862393413        0.9500932764       -9.0921781670
 C        -3.4479225330        0.3368446929       -9.7037999835
 O        -4.5155711465        0.8821245465       -9.4996145397
 C        -3.3324747097       -1.1515267070      -10.3242278614
 C        -3.1745835378       -2.0100281431       -8.9751824425
 O        -2.0634101307       -2.4109487463       -8.6827359404
 C        -4.4136232525       -2.2689259074       -8.0586641019
 C        -3.9439453243       -2.9981835238       -6.7452605209
 C        -2.9114852725       -4.0890916779       -7.0209370942
 O        -3.3175940058       -4.9684830870       -7.7567673715
 C        -1.5911727334       -4.2892600175       -6.3154808564
 C        -0.3637358618       -4.5361290058       -7.3699833623
 O        -0.5100504517       -5.1134850591       -8.4119575651
 C         1.0639781872       -4.2080328421       -6.7733597513
 C         2.1737163329       -4.8727213086       -7.5462985826
 C         2.2637880804       -6.4671630702       -7.0987720368
 O         1.6688114335       -6.9126590393       -6.1075803996
 C         3.3782755999       -7.4901713580       -7.7074516396
 C         2.6501604141       -8.4984028398       -8.5442404355
 O         2.4617511353       -8.3261614200       -9.7361528700
 C         1.9184951949       -9.6625029995       -7.9081766597
 C         0.7249632180      -10.2445899675       -8.8041054892
 C        -0.3440441432       -9.2708584680       -9.3183173621
 O        -0.6280039003       -8.3105581534       -8.6125695260
 C        -1.0134442455       -9.4318088580      -10.8350450661
 C        -2.4587682663       -8.9529140345      -10.8175451678
 O        -2.6461201491       -7.7534628875      -10.8483331433
 C        -3.7262837820       -9.9089039896      -10.7313642957
 C        -4.7418210131       -9.2519513410       -9.7549354373
 C        -4.2845881844       -9.0090151671       -8.3195159290
 O        -3.4958702675       -8.1131279922       -7.9838582191
 C        -4.9831027943       -9.7958379473       -7.1605759969
 C        -6.6097603868       -9.6822111968       -7.3935946792
 O        -7.2403059572      -10.4841671320       -8.0324719295
 C        -7.2381995199       -8.3932057258       -6.8886196142
 C        -8.7149415597       -8.4233742272       -6.9147202688
 C        -9.2589988701       -8.6882355263       -8.3386871421
 O        -8.6755553534       -8.1205743591       -9.2848363670
 C       -10.7018635138       -9.2139204820       -8.6314466239
 C       -11.4928076709       -7.9520651139       -7.9576636451
 O       -11.6903519048       -7.9686605970       -6.7780245439
 C       -11.9667516105       -6.7367274092       -8.8629433575
 C       -13.4927049827       -6.6611392346       -9.0122078212
 C       -13.9234317700       -5.3689571578       -9.8235858137
 O       -13.3090654641       -4.3317280619       -9.8344940320
 C       -15.2748716924       -5.5687528264      -10.5741318734
 C       -14.9892557029       -6.5106759340      -11.8191473692
 O       -14.2516793204       -7.4673603243      -11.7517646717
 C       -15.8478303297       -6.2747335043      -13.1227624890
 C       -16.4779277732       -6.2710443995       -9.8361401967
 C       -15.8958797081       -4.2354105979      -10.9707253248
 C       -10.9912033620       -9.5934376755      -10.1157421409
 C       -11.1021633706      -10.4002510324       -7.8049821558
 C        -4.5465478736      -11.2456524680       -7.3274238260
 C        -4.5245358640       -9.2547319988       -5.7588878677
 C        -0.0693470155       -8.4669066204      -11.5950376894
 C        -0.8321813493      -10.8787436750      -11.4214421598
 C         4.3681152940       -6.6222274613       -8.4718410808
 C         4.2503641009       -8.1693710070       -6.5720359970
 C        -1.2353892291       -3.1577718298       -5.3051156712
 C        -1.7078854063       -5.6864509827       -5.6483531044
 C        -4.5874485628       -1.4938220625      -11.2626684742
 C        -1.9938428270       -1.2607816355      -11.1736989302
 C        -2.6094593592        4.6849757651       -6.6137006537
 C        -4.0947009438        5.6674374619       -8.4355970108
 C         4.5279735488        5.9244554259       -9.3051523548
 C         3.8858293457        8.0522464272       -8.3778375770
 C         3.2423847749        5.8009555350      -15.8612227676
 C         2.5976386493        8.1754655916      -15.4412503225
 C        -2.5334637386        1.6793941334      -14.3205106461
 C        -1.2488102830        2.4973204114      -16.2659980879
 C        -5.6764912006        8.4133881356      -13.6079955678
 C        -4.2784159287        7.8374023426      -11.3986802640
 H        -7.5344298107        6.6625255887      -12.7827704794
 H        -7.3673724601        4.9059634007      -12.6063226910
 H        -6.9021414463        5.6263882359      -14.0731321595
 H        -3.5114282601        7.4603144154      -15.8847764369
 H        -4.6175296248        6.1516451806      -15.5925442220
 H        -1.6011663715        5.7767118265      -15.4903559273
 H        -2.6222590667        5.2555977424      -16.8165435240
 H         0.7182687802        4.0971040236      -15.4168683936
 H         1.3151318521        2.7485782248      -14.3505096650
 H         2.4850334736        4.4622428129      -13.3606733465
 H         0.9449038357        4.8704930672      -12.5284678735
 H         2.5664449972        8.8997491185      -13.0439527606
 H         4.2982674762        9.1585602589      -13.2606602456
 H         3.4019549227        9.2625498132      -10.8078913323
 H         4.8653194187        8.3424158069      -11.0618503648
 H         0.4737881448        7.0462932031       -9.6170782782
 H         0.9956856306        7.8964234775       -8.2843769212
 H        -0.8707696065        7.2348215781       -7.1990282842
 H        -0.1570704106        5.6170847634       -7.0225735584
 H        -2.9891180462        2.0041562101       -7.3562122218
 H        -1.3501205650        2.5549448145       -7.8281512363
 H        -1.6127283357        0.1467762072       -8.5067755742
 H        -1.5729287490        1.2345887221       -9.9046584741
 H        -5.0182658304       -3.0432473032       -8.6408024705
 H        -4.9996062659       -1.4140461832       -7.9429404507
 H        -4.7991566019       -3.5807567788       -6.3709346849
 H        -3.6152061859       -2.2403588356       -6.1366932571
 H         0.9802303005       -4.6281595260       -5.7525837560
 H         1.3878463346       -3.1800384161       -6.6887688253
 H         3.0688919541       -4.2570495707       -7.2470059028
 H         2.0401852119       -4.8575726498       -8.6063314467
 H         1.5420448536       -9.2235363653       -6.9790780944
 H         2.6083574470      -10.3686672193       -7.6969955004
 H         0.1486369751      -11.0216433828       -8.2681119722
 H         1.0946438958      -10.8050707008       -9.6394399333
 H        -3.5441363072      -10.9282702471      -10.4012561820
 H        -4.1694083899       -9.9839909310      -11.6691052470
 H        -5.5893361381       -9.8692066415       -9.9192228932
 H        -4.8655847716       -8.3235792022      -10.1677974937
 H        -6.7878115006       -7.5547577902       -7.4078994927
 H        -6.9213702088       -8.2833561612       -5.8378365833
 H        -9.1688666792       -7.4482129575       -6.5015145996
 H        -9.2465295551       -9.1795482030       -6.2605463044
 H       -11.3951078262       -6.8715382341       -9.8100401058
 H       -11.5016805710       -5.9387427552       -8.3552647678
 H       -14.1235657207       -6.5809910997       -8.0922018632
 H       -13.8442280850       -7.4939449499       -9.5051915960
 H       -15.6010048248       -7.0308906103      -13.8980532364
 H       -15.7130566919       -5.2986044884      -13.5913780510
 H       -16.9111306902       -6.1816017821      -12.8559715764
 H       -16.9760062140       -5.6711970366       -9.1503512423
 H       -16.3020593770       -7.2770624107       -9.5332753455
 H       -17.2022684922       -6.5496941839      -10.6555911043
 H       -16.9869840066       -4.2765404863      -11.2993778865
 H       -15.3111071804       -3.6758823917      -11.6843028233
 H       -15.7891261176       -3.5589024549      -10.1397696233
 H       -11.9831061584       -9.6637818227      -10.3716807036
 H       -10.5662784207      -10.6381468816      -10.2058767756
 H       -10.4270959911       -8.9811866950      -10.7456584384
 H       -11.0301342359      -10.2716756520       -6.7640146159
 H       -10.4190031390      -11.2355322060       -8.1795692910
 H       -12.1622730958      -10.6574011985       -7.9641610737
 H        -4.4932222473      -11.8903239839       -6.4919900084
 H        -3.6102481755      -11.3887904533       -7.8538030720
 H        -5.2446946407      -11.5875694760       -8.0702508839
 H        -3.5864427573       -9.7823866140       -5.5844456327
 H        -5.1699313773       -9.5400399925       -4.9189028804
 H        -4.4480915775       -8.1449037987       -5.6890944985
 H         0.9882045637       -8.6533915921      -11.2399977645
 H        -0.4379668600       -7.4673316253      -11.4656520451
 H        -0.2309416228       -8.7542423603      -12.6342353868
 H         0.2052439028      -10.8230812999      -11.7491532789
 H        -1.4742218584      -10.9570151951      -12.3048803680
 H        -0.8954581570      -11.7204508689      -10.7019134461
 H         4.1537527558       -6.2226837595       -9.4483318374
 H         5.2474833077       -7.1502774951       -8.7610221178
 H         4.6173872723       -5.7338250054       -7.8489465637
 H         3.6009334191       -8.6644932217       -5.8972541421
 H         4.8093382582       -7.4548021150       -5.9498145766
 H         4.9666382770       -8.9320287918       -6.8984260842
 H        -0.2346505677       -3.3453435697       -4.8490660366
 H        -1.9622220474       -3.1476733764       -4.4802330987
 H        -1.2839555761       -2.1621882848       -5.8115548615
 H        -2.7311636796       -5.8184744957       -5.2685936551
 H        -0.8816145192       -5.7574704106       -4.8967449343
 H        -1.4883566625       -6.5474264650       -6.2783587883
 H        -4.6989253109       -0.6182944118      -11.8648155948
 H        -5.5929090943       -1.5657298376      -10.7670612438
 H        -4.3000430778       -2.3325795976      -11.8117479457
 H        -1.2251127004       -0.6003530499      -10.7360594290
 H        -2.1240438926       -0.8909928072      -12.1462604587
 H        -1.7084909466       -2.2864395443      -11.2591442369
 H        -1.6588818745        4.6475329397       -6.1107681843
 H        -3.0956185403        3.7468455997       -6.3637562662
 H        -3.0477883151        5.5249510631       -5.9918355960
 H        -4.9718711876        5.1041567742       -8.0525847928
 H        -4.2614448428        5.7369001829       -9.4774691759
 H        -4.1621526929        6.7001512013       -8.0464832674
 H         4.5481145768        5.4272204219       -8.3099557437
 H         5.3551911290        6.5523107262       -9.4485109873
 H         4.5006871036        5.3067788270      -10.1532229506
 H         4.8552618876        8.4434613386       -8.7046331776
 H         4.2054396106        7.9440574599       -7.3222704755
 H         3.2598457877        8.9646095573       -8.4401428704
 H         4.2596664922        5.9114746206      -16.0995178430
 H         2.6449989922        5.9748637692      -16.7832233776
 H         3.1664026314        4.7950910684      -15.5210119408
 H         2.9957527909        9.0510723905      -15.0493007591
 H         1.5377534716        8.3814799116      -15.5614286704
 H         3.0089061654        8.1283398089      -16.4077144825
 H        -3.2588246942        1.9971026005      -13.5463028377
 H        -1.9130350729        0.7609629856      -14.1009653135
 H        -3.2662895517        1.2664360684      -15.0184310744
 H        -0.3047741347        1.9836937042      -16.3217986624
 H        -1.0951959741        3.4022281968      -16.8053959511
 H        -2.0189455274        1.8516874259      -16.8412609816
 H        -5.8949486311        8.2277348758      -14.6447107483
 H        -5.2052574375        9.4082584380      -13.6122876240
 H        -6.6622328623        8.5081536721      -13.1368713580
 H        -3.5063351030        7.2834009258      -10.8868662737
 H        -5.1668716517        7.7075015808      -10.8062583536
 H        -3.9698898034        8.8783154264      -11.4728086997
 Na       -2.6947900357        5.0522649923      -11.7534699216
 Na       -2.2628118448       -6.5202620256       -9.0165141531
